144
Coordinates from XML
O -0.820659040633 0.827048424068 0.0
H -1.775659040633 0.757048424068 0.0
H -0.741659040633 1.782048424068 0.0
Na 0.681319906736 -0.686719996985 0.0
O -0.862016678942 0.868730690621 0.0
H -1.817016678942 0.798730690621 0.0
H -0.783016678942 1.823730690621 0.0
Na 0.713720163163 -0.719374572537 0.0
O -0.888335176048 0.895255769337 0.0
H -1.843335176048 0.825255769337 0.0
H -0.809335176048 1.850255769337 0.0
Na 0.734338508163 -0.740154756979 0.0
O -0.899614531951 0.906623660215 0.0
H -1.854614531951 0.836623660215 0.0
H -0.820614531951 1.861623660215 0.0
Na 0.743174941734 -0.749060550311 0.0
O -0.877055820145 0.883887878459 0.0
H -1.832055820145 0.813887878459 0.0
H -0.798055820145 1.838887878459 0.0
Na 0.725502074591 -0.731248963647 0.0
O -0.843217752438 0.849784205824 0.0
H -1.798217752438 0.779784205824 0.0
H -0.764217752438 1.804784205824 0.0
Na 0.698992773878 -0.70453158365 0.0
O -0.794340543527 0.800523345352 0.0
H -1.749340543527 0.730523345352 0.0
H -0.715340543527 1.755523345352 0.0
Na 0.660701561736 -0.665939812543 0.0
O -0.761472680184 0.836132634677 0.0
H -1.721472680184 0.753132634677 0.0
H -0.590472680184 1.784132634677 0.0
Na 0.631138430927 -0.692959957916 0.0
O -0.881610379396 0.968012257714 0.0
H -1.841610379396 0.885012257714 0.0
H -0.710610379396 1.916012257714 0.0
Na 0.72525628727 -0.796276631175 0.0
O -1.045434514686 1.14784810731 0.0
H -2.005434514686 1.06484810731 0.0
H -0.874434514686 2.09584810731 0.0
Na 0.853598818648 -0.937163003801 0.0
O -1.252945086052 1.375640183465 0.0
H -2.212945086052 1.292640183465 0.0
H -1.081945086052 2.323640183465 0.0
Na 1.016166025059 -1.115619075795 0.0
O -1.504142093496 1.651388486178 0.0
H -2.464142093496 1.568388486178 0.0
H -1.333142093496 2.599388486178 0.0
Na 1.212957906504 -1.331644847155 0.0
O -1.799025537017 1.975093015451 0.0
H -2.759025537017 1.892093015451 0.0
H -1.628025537017 2.923093015451 0.0
Na 1.443974462983 -1.585240317882 0.0
O -0.80394888374 0.810207104248 0.0
H -1.75894888374 0.740207104248 0.0
H -0.72494888374 1.765207104248 0.0
Na 0.668228894038 -0.673526229085 0.0
O -0.811886208264 0.818206731162 0.0
H -1.766886208264 0.748206731162 0.0
H -0.732886208264 1.773206731162 0.0
Na 0.674447125069 -0.679793268838 0.0
O -0.788074234692 0.79420785042 0.0
H -1.743074234692 0.72420785042 0.0
H -0.709074234692 1.74920785042 0.0
Na 0.655792431974 -0.66099214958 0.0
O -0.899628230671 0.98781195735 0.0
H -1.859628230671 0.90481195735 0.0
H -0.728628230671 1.93581195735 0.0
Na 0.739371769329 -0.81178804265 0.0
O -0.965586787558 1.060233567462 0.0
H -1.925586787558 0.977233567462 0.0
H -0.794586787558 2.008233567462 0.0
Na 0.79104479139 -0.868524327274 0.0
O -1.013956395941 1.113342748211 0.0
H -1.973956395941 1.030342748211 0.0
H -0.842956395941 2.061342748211 0.0
Na 0.828938340901 -0.910130935999 0.0
O -0.827905172304 0.834351432753 0.0
H -1.782905172304 0.764351432753 0.0
H -0.748905172304 1.789351432753 0.0
Na 0.686996645878 -0.69244129452 0.0
O -0.931811966072 0.939073821449 0.0
H -1.886811966072 0.869073821449 0.0
H -0.852811966072 1.894073821449 0.0
Na 0.768398943019 -0.774482542187 0.0
O -0.972075848658 0.979653747069 0.0
H -1.927075848658 0.909653747069 0.0
H -0.893075848658 1.934653747069 0.0
Na 0.799942333161 -0.806273525658 0.0
O -1.00454672171 1.012379493537 0.0
H -1.95954672171 0.942379493537 0.0
H -0.92554672171 1.967379493537 0.0
Na 0.825380551017 -0.831911415554 0.0
O -1.02922458523 1.037251060852 0.0
H -1.98422458523 0.967251060852 0.0
H -0.95022458523 1.992251060852 0.0
Na 0.844713596588 -0.851396211875 0.0
O -1.046109439218 1.054268449015 0.0
H -2.001109439218 0.984268449015 0.0
H -0.967109439218 2.009268449015 0.0
Na 0.857941469873 -0.864727914621 0.0
O -1.055201283673 1.063431658026 0.0
H -2.010201283673 0.993431658026 0.0
H -0.976201283673 2.018431658026 0.0
Na 0.865064170873 -0.871906523792 0.0
O -1.050005943984 1.058195538591 0.0
H -2.005005943984 0.988195538591 0.0
H -0.971005943984 2.013195538591 0.0
Na 0.860994056016 -0.867804461409 0.0
O -1.035718759841 1.043796210146 0.0
H -1.990718759841 0.973796210146 0.0
H -0.956718759841 1.998796210146 0.0
Na 0.849801240159 -0.856523789854 0.0
O -1.057928767199 1.161623821619 0.0
H -2.017928767199 1.078623821619 0.0
H -0.886928767199 2.109623821619 0.0
Na 0.863387022275 -0.947955125749 0.0
O -1.053531530073 1.156795714278 0.0
H -2.013531530073 1.073795714278 0.0
H -0.882531530073 2.104795714278 0.0
Na 0.859942154137 -0.944172706774 0.0
O -1.031545344444 1.132655177574 0.0
H -1.991545344444 1.049655177574 0.0
H -0.860545344444 2.080655177574 0.0
Na 0.84271781345 -0.925260611899 0.0
O -0.991970210312 1.089202211507 0.0
H -1.951970210312 1.006202211507 0.0
H -0.820970210312 2.037202211507 0.0
Na 0.811714000214 -0.891218841124 0.0
O -0.934806127677 1.026436816077 0.0
H -1.894806127677 0.943436816077 0.0
H -0.763806127677 1.974436816077 0.0
Na 0.766930714428 -0.842047394449 0.0
O -0.860053096539 0.944358991283 0.0
H -1.820053096539 0.861358991283 0.0
H -0.689053096539 1.892358991283 0.0
Na 0.708367956093 -0.777746271875 0.0
O -0.767711116897 0.842968737127 0.0
H -1.727711116897 0.759968737127 0.0
H -0.596711116897 1.790968737127 0.0
Na 0.636025725208 -0.6983154734 0.0
O -0.886277451454 0.96613446367 0.003156862116
H -1.846277451454 0.88313446367 0.003156862116
H -0.715277451454 1.91413446367 0.003156862116
Na 0.728912548546 -0.79480553633 -0.002473137884
