10
Coordinates from XML
H -0.86131 0.284098 -1.40461
N 4.70034e-06 -1.54998e-06 -1.88
H 0.764363 -0.0499099 -1.20048
H -0.134903 -0.919423 -2.31013
H 0.231784 0.685257 -2.60474
H -0.396568 -0.875033 2.23442
N 2.16442e-06 4.77496e-06 1.88
H 1.02189 -0.0445561 1.92731
H -0.291022 0.13757 0.907924
H -0.334332 0.781952 2.45037
