10
Coordinates from XML
H 0.536194 0.866342 -1.93253
N -2.9258e-06 -4.72795e-06 -1.83
H 0.600373 -0.727931 -1.43231
H -0.796537 0.16324 -1.20756
H -0.339989 -0.301584 -2.74761
H -0.578641 0.794406 2.1175
N 3.15744e-06 -4.33543e-06 1.83
H 0.156279 -0.616533 2.63246
H -0.477925 -0.519632 1.0883
H 0.900242 0.34182 1.48175
