10
Coordinates from XML
H 0.282504 0.197599 -0.995785
N -1.54135e-06 -1.07825e-06 -1.96001
H -0.27124 0.872707 -2.42184
H 0.783262 -0.424297 -2.465
H -0.794504 -0.645994 -1.9573
H -0.716172 -0.142069 2.67797
N 3.90805e-06 7.75197e-07 1.96
H -0.0716366 -0.739542 1.25542
H -0.139862 0.911077 1.51399
H 0.927616 -0.0294766 2.39268
