10
Coordinates from XML
H 0.0803806 0.0665568 -0.921337
N -4.38478e-07 -3.62946e-07 -1.94001
H -0.978681 0.124826 -2.21402
H 0.572123 0.728872 -2.37586
H 0.326184 -0.920249 -2.2487
H -0.410925 -0.654171 1.26787
N 2.2424e-06 3.5698e-06 1.94
H -0.444738 -0.125256 2.85379
H 1.0046 -0.180718 2.02168
H -0.148968 0.960096 1.61662
