10
Coordinates from XML
H -0.130394084915 0.259369979445 -2.681982256359
N 7.11878e-07 -1.415287e-06 -1.699994641079
H 0.925242288302 0.306336871911 -1.386039661738
H -0.72072479415 0.450976119976 -1.129273870781
H -0.074133295593 -1.016663303243 -1.602778672666
H -0.805773182937 -0.25391924205 1.121364405174
N 4.39717e-06 1.38554e-06 1.700003158009
H -0.230961748412 0.822294013656 2.264779506081
H 0.237202106469 -0.78212575905 2.316900691152
H 0.799471724342 0.21373173267 1.096911521937
