10
Coordinates from XML
H 0.713172 0.733294 -1.90278
N -3.8914e-06 -4.00165e-06 -1.95
H 0.450372 -0.90364 -2.12055
H -0.512063 -0.0356575 -1.06396
H -0.651427 0.206059 -2.71272
H -1.00348 0.140089 1.80178
N 5.47572e-06 -7.64755e-07 1.95
H 0.42696 0.881011 2.25002
H 0.142227 -0.711649 2.67241
H 0.434216 -0.309441 1.07578
