10
Coordinates from XML
H 0.713172152881 0.733293954532 -1.902776986715
N -3.891401e-06 -4.001653e-06 -1.950000257639
H 0.450371821746 -0.903640236422 -2.120546797386
H -0.512063206046 -0.035657468452 -1.063957212076
H -0.651426688087 0.206059354858 -2.712715422731
H -1.003478452538 0.140089069548 1.801775156376
N 5.475721e-06 -7.64755e-07 1.950000808847
H 0.426959836013 0.881011491874 2.250017854856
H 0.142226612187 -0.711648761572 2.672412372272
H 0.434215910745 -0.309441178224 1.075783376724
