10
Coordinates from XML
H 0.216775 -0.977624 -1.55594
N -1.18315e-06 5.33509e-06 -1.77
H -0.0395408 0.1264 -2.78536
H -0.905268 0.246576 -1.35983
H 0.72805 0.604574 -1.37887
H 0.517259 -0.452505 2.52911
N -2.82278e-06 2.46971e-06 1.77
H -0.0425111 1.00886 1.93995
H 0.475408 -0.176552 0.880411
H -0.950117 -0.379837 1.73059
