10
Coordinates from XML
H -0.0466654 -1.01125 -1.68587
N 2.54302e-07 5.51861e-06 -1.84
H 0.95306 0.328889 -1.66113
H -0.257337 0.209844 -2.80866
H -0.649061 0.472442 -1.20433
H 0.900319 -0.486847 1.87116
N -4.91304e-06 2.65713e-06 1.84
H 0.0192416 0.706002 1.0986
H -0.746419 -0.674655 1.6496
H -0.173073 0.455462 2.74064
