10
Coordinates from XML
H 0.303045193063 0.977620422769 -1.978591776835
N -1.653391e-06 -5.334668e-06 -2.010000171401
H -0.246113310277 -0.311528284938 -1.066143533028
H -0.817152057664 -0.084554027775 -2.621281551201
H 0.760243155732 -0.581463977463 -2.373980757312
H -0.848768675158 -0.572690301885 2.02349484104
N 4.631627e-06 3.124799e-06 2.009999926346
H 0.822923559412 -0.609328516469 2.011496336542
H 0.006660543457 0.580521040622 1.166493649994
H 0.01912021078 0.601454349834 2.838516195672
