10
Coordinates from XML
H -0.238711 -0.993359 -2.11942
N 1.30263e-06 5.42116e-06 -2.05
H -0.852415 0.545867 -1.89539
H 0.6434 0.142443 -1.26623
H 0.447708 0.304973 -2.91897
H 0.0394515 -0.970988 2.37278
N -2.15194e-07 5.29909e-06 2.05
H 0.541565 0.094778 1.18616
H -0.974044 0.261397 1.87262
H 0.39303 0.61474 2.76845
