10
Coordinates from XML
H 1.008777372017 0.17489555861 -2.031444305632
N -5.504591e-06 -9.54511e-07 -2.050000101469
H -0.171311192301 -1.009502578056 -2.056609444745
H -0.433560181983 0.414359529429 -1.220009787634
H -0.403829502146 0.42026075171 -2.891935055776
H -0.830564170526 0.263100721782 2.588057362505
N 4.532009e-06 -1.435814e-06 2.049997063804
H -0.007160871183 0.48890605073 1.150329916133
H 0.841516914572 0.259254742711 2.572674147566
H -0.003854855052 -1.011241564908 1.888979373964
