10
Coordinates from XML
H -0.91384 0.461686 -2.07751
N 4.98667e-06 -2.5193e-06 -2.06
H 0.71625 0.647809 -2.40032
H 0.222054 -0.281092 -1.10071
H -0.0245335 -0.828368 -2.66146
H 0.449826 -0.326791 2.9199
N -2.45435e-06 1.78312e-06 2.06
H 0.516377 -0.352984 1.24929
H -0.963874 -0.344109 2.02701
H -0.00229469 1.02386 2.04386
