10
Coordinates from XML
H 0.791691 -0.0411217 -1.15185
N -4.32017e-06 2.24593e-07 -1.8
H -0.804621 0.423922 -1.32951
H 0.255247 0.564718 -2.61517
H -0.242257 -0.947521 -2.10343
H -0.25296 -0.488043 2.66394
N 1.3801e-06 2.66327e-06 1.8
H -0.122909 -0.63102 1.00301
H -0.602134 0.819835 1.68229
H 0.977984 0.29919 1.85083
