10
Coordinates from XML
H 0.027533139507 -0.460564434298 -0.476287544976
N 5.213152e-05 -1.4287551e-05 -1.389908931771
H -0.11729066635 -0.704280022671 -2.123771368125
H -0.785255176239 0.656013601114 -1.418036859344
H 0.875169068458 0.508753757705 -1.542213762449
H -0.770730546553 0.355655850259 0.817929296105
N -8.4470783e-05 2.8462084e-05 1.389942817413
H 0.805596889557 -0.200244322952 0.790708313614
H 0.25989512338 0.702744035991 2.087418818035
H -0.294468498707 -0.858275411082 1.863782288169
