10
Coordinates from XML
H 0.0275331 -0.460564 -0.476288
N 5.21315e-05 -1.42876e-05 -1.38991
H -0.117291 -0.70428 -2.12377
H -0.785255 0.656014 -1.41804
H 0.875169 0.508754 -1.54221
H -0.770731 0.355656 0.817929
N -8.44708e-05 2.84621e-05 1.38994
H 0.805597 -0.200244 0.790708
H 0.259895 0.702744 2.08742
H -0.294468 -0.858275 1.86378
