10
Coordinates from XML
H 0.0275331 -0.460564 -0.706288
N 5.21315e-05 -1.42876e-05 -1.61991
H -0.117291 -0.70428 -2.35377
H -0.785255 0.656014 -1.64804
H 0.875169 0.508754 -1.77221
H -0.770731 0.355656 1.04793
N -8.44708e-05 2.84621e-05 1.61994
H 0.805597 -0.200244 1.02071
H 0.259895 0.702744 2.31742
H -0.294468 -0.858275 2.09378
