10
Coordinates from XML
H 0.027533139507 -0.460564434298 -1.086287544976
N 5.213152e-05 -1.4287551e-05 -1.999908931771
H -0.11729066635 -0.704280022671 -2.733771368125
H -0.785255176239 0.656013601114 -2.028036859344
H 0.875169068458 0.508753757705 -2.152213762449
H -0.770730546553 0.355655850259 1.427929296105
N -8.4470783e-05 2.8462084e-05 1.999942817413
H 0.805596889557 -0.200244322952 1.400708313614
H 0.25989512338 0.702744035991 2.697418818035
H -0.294468498707 -0.858275411082 2.473782288169
