10
Coordinates from XML
H 0.0275331 -0.460564 -1.28629
N 5.21315e-05 -1.42876e-05 -2.19991
H -0.117291 -0.70428 -2.93377
H -0.785255 0.656014 -2.22804
H 0.875169 0.508754 -2.35221
H -0.770731 0.355656 1.62793
N -8.44708e-05 2.84621e-05 2.19994
H 0.805597 -0.200244 1.60071
H 0.259895 0.702744 2.89742
H -0.294468 -0.858275 2.67378
