10
Coordinates from XML
H -0.190862 -0.624584 -1.61669
N -0.0138621 0.0104161 -2.39969
H -0.828862 0.614416 -2.53969
H 0.807138 0.586416 -2.19269
H 0.157138 -0.534584 -3.24969
H 0.935862 0.430528 2.33264
N 0.0138621 -0.010472 2.39964
H -0.713138 0.704528 2.30864
H -0.0901379 -0.700472 1.65064
H -0.0771379 -0.475472 3.30764
