10
Coordinates from XML
H -0.190862144074 -0.624583860628 -1.616693108466
N -0.013862144074 0.010416139372 -2.399693108466
H -0.828862144074 0.614416139372 -2.539693108466
H 0.807137855926 0.586416139372 -2.192693108466
H 0.157137855926 -0.534583860628 -3.249693108466
H 0.935862144074 0.430527977068 2.332637224906
N 0.013862144074 -0.010472022932 2.399637224906
H -0.713137855926 0.704527977068 2.308637224906
H -0.090137855926 -0.700472022932 1.650637224906
H -0.077137855926 -0.475472022932 3.307637224906
