10
Coordinates from XML
H -0.191412 -0.624169 -1.63454
N -0.0144122 0.0108306 -2.41754
H -0.829412 0.614831 -2.55754
H 0.806588 0.586831 -2.21054
H 0.156588 -0.534169 -3.26754
H 0.936412 0.430114 2.35048
N 0.0144122 -0.0108865 2.41748
H -0.712588 0.704114 2.32648
H -0.0895878 -0.700886 1.66848
H -0.0765878 -0.475886 3.32548
