10
Coordinates from XML
H -0.191412229157 -0.624169412963 -1.634536964287
N -0.014412229157 0.010830587037 -2.417536964287
H -0.829412229157 0.614830587037 -2.557536964287
H 0.806587770843 0.586830587037 -2.210536964287
H 0.156587770843 -0.534169412963 -3.267536964287
H 0.936412229157 0.430113529403 2.350481080727
N 0.014412229157 -0.010886470597 2.417481080727
H -0.712587770843 0.704113529403 2.326481080727
H -0.089587770843 -0.700886470597 1.668481080727
H -0.076587770843 -0.475886470597 3.325481080727
