10
Coordinates from XML
H -0.193062 -0.622926 -1.68807
N -0.0160625 0.0120739 -2.47107
H -0.831062 0.616074 -2.61107
H 0.804938 0.588074 -2.26407
H 0.154938 -0.532926 -3.32107
H 0.938062 0.42887 2.40401
N 0.0160625 -0.0121298 2.47101
H -0.710938 0.70287 2.38001
H -0.0879375 -0.70213 1.72201
H -0.0749375 -0.47713 3.37901
