10
Coordinates from XML
H -0.193062484404 -0.622926069969 -1.688068531749
N -0.016062484404 0.012073930031 -2.471068531749
H -0.831062484404 0.616073930031 -2.611068531749
H 0.804937515596 0.588073930031 -2.264068531749
H 0.154937515596 -0.532926069969 -3.321068531749
H 0.938062484404 0.428870186409 2.404012648189
N 0.016062484404 -0.012129813591 2.471012648189
H -0.710937515596 0.702870186409 2.380012648189
H -0.087937515596 -0.702129813591 1.722012648189
H -0.074937515596 -0.477129813591 3.379012648189
