10
Coordinates from XML
H -0.193613 -0.622512 -1.70591
N -0.0166126 0.0124884 -2.48891
H -0.831613 0.616488 -2.62891
H 0.804387 0.588488 -2.28191
H 0.154387 -0.532512 -3.33891
H 0.938613 0.428456 2.42186
N 0.0166126 -0.0125443 2.48886
H -0.710387 0.702456 2.39786
H -0.0873874 -0.702544 1.73986
H -0.0743874 -0.477544 3.39686
