10
Coordinates from XML
H -0.193612569486 -0.622511622304 -1.70591238757
N -0.016612569486 0.012488377696 -2.48891238757
H -0.831612569486 0.616488377696 -2.62891238757
H 0.804387430514 0.588488377696 -2.28191238757
H 0.154387430514 -0.532511622304 -3.33891238757
H 0.938612569486 0.428455738744 2.42185650401
N 0.016612569486 -0.012544261256 2.48885650401
H -0.710387430514 0.702455738744 2.39785650401
H -0.087387430514 -0.702544261256 1.73985650401
H -0.074387430514 -0.477544261256 3.39685650401
