10
Coordinates from XML
H -0.194162654568 -0.62209717464 -1.723756243391
N -0.017162654568 0.01290282536 -2.506756243391
H -0.832162654568 0.61690282536 -2.646756243391
H 0.803837345432 0.58890282536 -2.299756243391
H 0.153837345432 -0.53209717464 -3.356756243391
H 0.939162654568 0.428041291079 2.439700359831
N 0.017162654568 -0.012958708921 2.506700359831
H -0.709837345432 0.702041291079 2.415700359831
H -0.086837345432 -0.702958708921 1.757700359831
H -0.073837345432 -0.477958708921 3.414700359831
