10
Coordinates from XML
H -0.194712739651 -0.621682726975 -1.741600099212
N -0.017712739651 0.013317273025 -2.524600099212
H -0.832712739651 0.617317273025 -2.664600099212
H 0.803287260349 0.589317273025 -2.317600099212
H 0.153287260349 -0.531682726975 -3.374600099212
H 0.939712739651 0.427626843415 2.457544215652
N 0.017712739651 -0.013373156585 2.524544215652
H -0.709287260349 0.701626843415 2.433544215652
H -0.086287260349 -0.703373156585 1.775544215652
H -0.073287260349 -0.478373156585 3.432544215652
