10
Coordinates from XML
H -0.195263 -0.621268 -1.75944
N -0.0182628 0.0137317 -2.54244
H -0.833263 0.617732 -2.68244
H 0.802737 0.589732 -2.33544
H 0.152737 -0.531268 -3.39244
H 0.940263 0.427212 2.47539
N 0.0182628 -0.0137876 2.54239
H -0.708737 0.701212 2.45139
H -0.0857372 -0.703788 1.79339
H -0.0727372 -0.478788 3.45039
