10
Coordinates from XML
H -0.195262824733 -0.62126827931 -1.759443955033
N -0.018262824733 0.01373172069 -2.542443955033
H -0.833262824733 0.61773172069 -2.682443955033
H 0.802737175267 0.58973172069 -2.335443955033
H 0.152737175267 -0.53126827931 -3.392443955033
H 0.940262824733 0.42721239575 2.475388071473
N 0.018262824733 -0.01378760425 2.542388071473
H -0.708737175267 0.70121239575 2.451388071473
H -0.085737175267 -0.70378760425 1.793388071473
H -0.072737175267 -0.47878760425 3.450388071473
