10
Coordinates from XML
H -0.195813 -0.620854 -1.77729
N -0.0188129 0.0141462 -2.56029
H -0.833813 0.618146 -2.70029
H 0.802187 0.590146 -2.35329
H 0.152187 -0.530854 -3.41029
H 0.940813 0.426798 2.49323
N 0.0188129 -0.0142021 2.56023
H -0.708187 0.700798 2.46923
H -0.0851871 -0.704202 1.81123
H -0.0721871 -0.479202 3.46823
