10
Coordinates from XML
H -0.196363 -0.620439 -1.79513
N -0.019363 0.0145606 -2.57813
H -0.834363 0.618561 -2.71813
H 0.801637 0.590561 -2.37113
H 0.151637 -0.530439 -3.42813
H 0.941363 0.426384 2.51108
N 0.019363 -0.0146165 2.57808
H -0.707637 0.700384 2.48708
H -0.084637 -0.704616 1.82908
H -0.071637 -0.479616 3.48608
