10
Coordinates from XML
H -0.197463165062 -0.619610488651 -1.830819378316
N -0.020463165062 0.015389511349 -2.613819378316
H -0.835463165062 0.619389511349 -2.753819378316
H 0.800536834938 0.591389511349 -2.406819378316
H 0.150536834938 -0.529610488651 -3.463819378316
H 0.942463165062 0.425554605091 2.546763494756
N 0.020463165062 -0.015445394909 2.613763494756
H -0.706536834938 0.699554605091 2.522763494756
H -0.083536834938 -0.705445394909 1.864763494756
H -0.070536834938 -0.480445394909 3.521763494756
