10
Coordinates from XML
H -0.198563 -0.618782 -1.86651
N -0.0215633 0.0162184 -2.64951
H -0.836563 0.620218 -2.78951
H 0.799437 0.592218 -2.44251
H 0.149437 -0.528782 -3.49951
H 0.943563 0.424726 2.58245
N 0.0215633 -0.0162743 2.64945
H -0.705437 0.698726 2.55845
H -0.0824367 -0.706274 1.90045
H -0.0694367 -0.481274 3.55745
