10
Coordinates from XML
H 0.077225627467 1.015872440981 -1.601657154608
N -2.1039584e-05 3.0177046e-05 -1.699958370835
H 0.021473445908 -0.24943371421 -2.692742026735
H 0.782985391393 -0.450100353036 -1.2181339489
H -0.881797626034 -0.316777213259 -1.287678771932
H 0.13250037436 0.90242918013 2.164422004476
N 4.1855033e-05 3.3209238e-05 1.699984781318
H -0.840549662878 -0.453520675732 2.068777957521
H -0.105782777231 0.146903621875 0.692462291379
H 0.813656009866 -0.596253997988 1.874182692296
