10
Coordinates from XML
H 0.097680367811 0.583043273883 -0.764417024829
N 3.03968e-06 -3.6708279e-05 -1.599906435803
H 0.205980902254 0.559235798418 -2.432433322306
H 0.654106698041 -0.785625667901 -1.546336581634
H -0.957732626916 -0.356886247717 -1.657109038614
H -0.227060888958 0.943043239708 1.926787414673
N -8.99281e-06 7.8517535e-05 1.599937829891
H -0.068874498809 -0.657853664793 2.381408506826
H -0.657292240435 -0.273826048139 0.864528855286
H 0.953275001881 -0.011711595908 1.227134990139
