10
Coordinates from XML
H 0.097680367811 0.583043273883 -1.114417024829
N 3.03968e-06 -3.6708279e-05 -1.949906435803
H 0.205980902254 0.559235798418 -2.782433322306
H 0.654106698041 -0.785625667901 -1.896336581634
H -0.957732626916 -0.356886247717 -2.007109038614
H -0.227060888958 0.943043239708 2.276787414673
N -8.99281e-06 7.8517535e-05 1.949937829891
H -0.068874498809 -0.657853664793 2.731408506825
H -0.657292240435 -0.273826048139 1.214528855286
H 0.953275001881 -0.011711595908 1.577134990139
