10
Coordinates from XML
H 0.0976804 0.583043 -1.11442
N 3.03968e-06 -3.67083e-05 -1.94991
H 0.205981 0.559236 -2.78243
H 0.654107 -0.785626 -1.89634
H -0.957733 -0.356886 -2.00711
H -0.227061 0.943043 2.27679
N -8.99281e-06 7.85175e-05 1.94994
H -0.0688745 -0.657854 2.73141
H -0.657292 -0.273826 1.21453
H 0.953275 -0.0117116 1.57713
