10
Coordinates from XML
H 0.0976804 0.583043 -1.29442
N 3.03968e-06 -3.67083e-05 -2.12991
H 0.205981 0.559236 -2.96243
H 0.654107 -0.785626 -2.07634
H -0.957733 -0.356886 -2.18711
H -0.227061 0.943043 2.45679
N -8.99281e-06 7.85175e-05 2.12994
H -0.0688745 -0.657854 2.91141
H -0.657292 -0.273826 1.39453
H 0.953275 -0.0117116 1.75713
