10
Coordinates from XML
H 0.393250523991 -0.916848237139 -1.770761241038
N 5.139418e-06 -0.000124741812 -1.999981184553
H 0.46060025366 0.719582817364 -1.435900690856
H 0.150063336917 0.19705384103 -2.993195402367
H -1.003923642726 0.000383134364 -1.799985981906
H -0.023937969367 1.012560387526 1.85179111615
N -4.458695e-06 0.000117480678 1.999953963441
H 0.01997713302 -0.197474468069 3.004380063834
H -0.83350659042 -0.425409700376 1.585138157053
H 0.837467496723 -0.389746885953 1.558912198801
