10
Coordinates from XML
H 0.393251 -0.916848 -2.11076
N 5.13942e-06 -0.000124742 -2.33998
H 0.4606 0.719583 -1.7759
H 0.150063 0.197054 -3.3332
H -1.00392 0.000383134 -2.13999
H -0.023938 1.01256 2.19179
N -4.45869e-06 0.000117481 2.33995
H 0.0199771 -0.197474 3.34438
H -0.833507 -0.42541 1.92514
H 0.837467 -0.389747 1.89891
