10
Coordinates from XML
H 0.0772256 1.01587 -1.86166
N -2.10396e-05 3.0177e-05 -1.95996
H 0.0214734 -0.249434 -2.95274
H 0.782985 -0.4501 -1.47813
H -0.881798 -0.316777 -1.54768
H 0.1325 0.902429 2.42442
N 4.1855e-05 3.32092e-05 1.95998
H -0.84055 -0.453521 2.32878
H -0.105783 0.146904 0.952462
H 0.813656 -0.596254 2.13418
