10
Coordinates from XML
H 0.0772256 1.01587 -2.11166
N -2.10396e-05 3.0177e-05 -2.20996
H 0.0214734 -0.249434 -3.20274
H 0.782985 -0.4501 -1.72813
H -0.881798 -0.316777 -1.79768
H 0.1325 0.902429 2.67442
N 4.1855e-05 3.32092e-05 2.20998
H -0.84055 -0.453521 2.57878
H -0.105783 0.146904 1.20246
H 0.813656 -0.596254 2.38418
