10
Coordinates from XML
H 0.0772256 1.01587 -2.24166
N -2.10396e-05 3.0177e-05 -2.33996
H 0.0214734 -0.249434 -3.33274
H 0.782985 -0.4501 -1.85813
H -0.881798 -0.316777 -1.92768
H 0.1325 0.902429 2.80442
N 4.1855e-05 3.32092e-05 2.33998
H -0.84055 -0.453521 2.70878
H -0.105783 0.146904 1.33246
H 0.813656 -0.596254 2.51418
