10
Coordinates from XML
H -0.211124 -0.323217 -2.48801
N -4.5585e-05 2.70544e-05 -1.54011
H -0.202137 -0.74844 -0.871324
H 0.9896 0.254366 -1.4786
H -0.576491 0.8173 -1.32183
H 0.941768 -0.39769 1.48859
N 7.6089e-05 -3.26667e-05 1.54009
H -0.405646 0.0393107 0.600854
H -0.585861 -0.586651 2.14044
H 0.0494665 0.945098 1.93016
