10
Coordinates from XML
H -0.211123792635 -0.323217164572 -2.918011899788
N -4.5584955e-05 2.7054409e-05 -1.970106394468
H -0.20213659858 -0.748440326557 -1.301324340873
H 0.989600437666 0.254366361388 -1.908595375355
H -0.576491126649 0.817300259003 -1.75182587507
H 0.941767763342 -0.397689659138 1.918593643887
N 7.6089036e-05 -3.2666738e-05 1.970085282206
H -0.405645709675 0.039310660968 1.030853916683
H -0.585861328448 -0.586650506438 2.570442002476
H 0.049466520591 0.945098355017 2.360161269194
