10
Coordinates from XML
H -0.211124 -0.323217 -3.13801
N -4.5585e-05 2.70544e-05 -2.19011
H -0.202137 -0.74844 -1.52132
H 0.9896 0.254366 -2.1286
H -0.576491 0.8173 -1.97183
H 0.941768 -0.39769 2.13859
N 7.6089e-05 -3.26667e-05 2.19009
H -0.405646 0.0393107 1.25085
H -0.585861 -0.586651 2.79044
H 0.0494665 0.945098 2.58016
