10
Coordinates from XML
H 0.542524 -0.667391 -1.92495
N 5.43011e-05 -3.86337e-05 -1.37003
H 0.0198172 -0.279395 -0.385207
H 0.405922 0.934634 -1.46765
H -0.968294 0.0122166 -1.70173
H -0.753371 -0.147406 0.692955
N -5.80104e-05 3.45948e-05 1.36997
H -0.116688 -0.645265 2.15629
H 0.902714 -0.17155 0.918932
H -0.0325735 0.964212 1.71228
