10
Coordinates from XML
H 0.542524 -0.667391 -2.09495
N 5.43011e-05 -3.86337e-05 -1.54003
H 0.0198172 -0.279395 -0.555207
H 0.405922 0.934634 -1.63765
H -0.968294 0.0122166 -1.87173
H -0.753371 -0.147406 0.862955
N -5.80104e-05 3.45948e-05 1.53997
H -0.116688 -0.645265 2.32629
H 0.902714 -0.17155 1.08893
H -0.0325735 0.964212 1.88228
