10
Coordinates from XML
H 0.542524 -0.667391 -2.13495
N 5.43011e-05 -3.86337e-05 -1.58003
H 0.0198172 -0.279395 -0.595207
H 0.405922 0.934634 -1.67765
H -0.968294 0.0122166 -1.91173
H -0.753371 -0.147406 0.902955
N -5.80104e-05 3.45948e-05 1.57997
H -0.116688 -0.645265 2.36629
H 0.902714 -0.17155 1.12893
H -0.0325735 0.964212 1.92228
