10
Coordinates from XML
H 0.542524 -0.667391 -2.20495
N 5.43011e-05 -3.86337e-05 -1.65003
H 0.0198172 -0.279395 -0.665207
H 0.405922 0.934634 -1.74765
H -0.968294 0.0122166 -1.98173
H -0.753371 -0.147406 0.972955
N -5.80104e-05 3.45948e-05 1.64997
H -0.116688 -0.645265 2.43629
H 0.902714 -0.17155 1.19893
H -0.0325735 0.964212 1.99228
