10
Coordinates from XML
H 0.542524 -0.667391 -2.23495
N 5.43011e-05 -3.86337e-05 -1.68003
H 0.0198172 -0.279395 -0.695207
H 0.405922 0.934634 -1.77765
H -0.968294 0.0122166 -2.01173
H -0.753371 -0.147406 1.00295
N -5.80104e-05 3.45948e-05 1.67997
H -0.116688 -0.645265 2.46629
H 0.902714 -0.17155 1.22893
H -0.0325735 0.964212 2.02228
