10
Coordinates from XML
H 0.542524 -0.667391 -2.39495
N 5.43011e-05 -3.86337e-05 -1.84003
H 0.0198172 -0.279395 -0.855207
H 0.405922 0.934634 -1.93765
H -0.968294 0.0122166 -2.17173
H -0.753371 -0.147406 1.16295
N -5.80104e-05 3.45948e-05 1.83997
H -0.116688 -0.645265 2.62629
H 0.902714 -0.17155 1.38893
H -0.0325735 0.964212 2.18228
