10
Coordinates from XML
H 0.54252403461 -0.667390792204 -2.524951063264
N 5.4301121e-05 -3.863373e-05 -1.970033621921
H 0.019817228534 -0.279395080677 -0.9852072232
H 0.405921959468 0.934633957001 -2.067654985771
H -0.96829360934 0.012216589415 -2.301731485115
H -0.753370532368 -0.147406402625 1.292954874
N -5.8010403e-05 3.4594782e-05 1.969968225725
H -0.116687657371 -0.645264595027 2.756288843824
H 0.902713568577 -0.171549702798 1.518932036882
H -0.032573454041 0.964212145473 2.312277640298
