10
Coordinates from XML
H 0.54252403461 -0.667390792204 -2.554951063264
N 5.4301121e-05 -3.863373e-05 -2.000033621921
H 0.019817228534 -0.279395080677 -1.0152072232
H 0.405921959468 0.934633957001 -2.097654985771
H -0.96829360934 0.012216589415 -2.331731485115
H -0.753370532368 -0.147406402625 1.322954874
N -5.8010403e-05 3.4594782e-05 1.999968225725
H -0.116687657371 -0.645264595027 2.786288843824
H 0.902713568577 -0.171549702798 1.548932036882
H -0.032573454041 0.964212145473 2.342277640298
