10
Coordinates from XML
H 0.542524 -0.667391 -2.61495
N 5.43011e-05 -3.86337e-05 -2.06003
H 0.0198172 -0.279395 -1.07521
H 0.405922 0.934634 -2.15765
H -0.968294 0.0122166 -2.39173
H -0.753371 -0.147406 1.38295
N -5.80104e-05 3.45948e-05 2.05997
H -0.116688 -0.645265 2.84629
H 0.902714 -0.17155 1.60893
H -0.0325735 0.964212 2.40228
