10
Coordinates from XML
H 1.01921 -0.0905279 -1.43456
N 3.5759e-05 1.50799e-05 -1.46005
H -0.354353 0.136845 -0.509256
H -0.256882 0.804284 -2.03885
H -0.408429 -0.850452 -1.8572
H 0.843475 -0.448566 1.09262
N 2.89888e-05 -4.04609e-05 1.46003
H -0.49923 0.465223 0.696761
H -0.606555 -0.707994 1.8828
H 0.261864 0.691541 2.16787
