10
Coordinates from XML
H 1.019211113424 -0.090527913915 -1.434564914213
N 3.575898e-05 1.5079911e-05 -1.460045201516
H -0.354353493378 0.136845195893 -0.509256365579
H -0.256881778403 0.804283552579 -2.038851681692
H -0.408429041179 -0.850452278911 -1.857201489701
H 0.84347493366 -0.448565912428 1.092623513091
N 2.8988843e-05 -4.0460881e-05 1.460032739112
H -0.499230152428 0.46522289636 0.696760866426
H -0.606555067496 -0.707993820402 1.88279645796
H 0.261863856865 0.691540932909 2.16786677071
