10
Coordinates from XML
H 1.019211113424 -0.090527913915 -1.624564914213
N 3.575898e-05 1.5079911e-05 -1.650045201516
H -0.354353493378 0.136845195893 -0.699256365579
H -0.256881778403 0.804283552579 -2.228851681692
H -0.408429041179 -0.850452278911 -2.047201489701
H 0.84347493366 -0.448565912428 1.282623513091
N 2.8988843e-05 -4.0460881e-05 1.650032739112
H -0.499230152428 0.46522289636 0.886760866426
H -0.606555067496 -0.707993820402 2.07279645796
H 0.261863856865 0.691540932909 2.35786677071
