10
Coordinates from XML
H 0.521528 0.719596 -1.93787
N 3.57212e-05 4.41015e-05 -1.43007
H 0.654804 -0.678745 -1.03153
H -0.539116 0.436463 -0.677259
H -0.637097 -0.477702 -2.07326
H -0.721586 0.725929 1.42763
N -5.95185e-05 9.24278e-06 1.43007
H 0.337196 -0.149227 0.474923
H 0.779145 0.295154 2.02471
H -0.394543 -0.872209 1.79268
