10
Coordinates from XML
H 0.521528 0.719596 -2.07787
N 3.57212e-05 4.41015e-05 -1.57007
H 0.654804 -0.678745 -1.17153
H -0.539116 0.436463 -0.817259
H -0.637097 -0.477702 -2.21326
H -0.721586 0.725929 1.56763
N -5.95185e-05 9.24278e-06 1.57007
H 0.337196 -0.149227 0.614923
H 0.779145 0.295154 2.16471
H -0.394543 -0.872209 1.93268
