320
Coordinates from XML
H -0.177424749192 -0.635341645217 -1.166784826173
N 9.6785e-07 3.466898e-06 -1.950004273993
H -0.814548930839 0.604365790453 -2.090494467297
H 0.820829724832 0.576121307746 -1.742937678019
H 0.171130499867 -0.545193630809 -2.799723638208
H 0.921934609259 0.440609644205 1.883184777404
N -5.030944e-06 -2.404166e-06 1.950000364306
H -0.727370754972 0.714888825634 1.85860844418
H -0.103588110564 -0.690098827068 1.200610170404
H -0.090905834331 -0.465366230916 2.857591540274
H -0.256176484388 -0.919133053577 -1.348338064549
N 1.39798e-06 5.015723e-06 -1.720002028566
H 1.002167063415 0.016216341003 -1.929487163972
H -0.530758054285 0.181789961365 -2.576621446609
H -0.215251950192 0.721057054525 -1.025525143823
H -0.053224830368 0.005606852297 2.742594854394
N 2.90549e-07 -3.0237e-08 1.719994419536
H -0.786945625398 -0.533808093897 1.340194568897
H -0.039796811831 0.961813426431 1.370882324051
H 0.879963232027 -0.433611758233 1.426405794127
H -0.711713720722 -0.688485272256 -1.449200910601
N 3.883801e-06 3.757475e-06 -1.710001423163
H 0.052330255397 0.066996200287 -2.730421343314
H -0.24975045789 0.913415773466 -1.320322776262
H 0.909079954748 -0.291978906855 -1.340035193673
H 0.085012544721 -1.018844496365 1.65261258957
N -4.63637e-07 5.560122e-06 1.710000313062
H -0.977941102074 0.269314363574 1.570044155369
H 0.31279449803 0.317197436131 2.632007263009
H 0.580140506827 0.432255440071 0.985331640031
H -0.861309760088 0.28409778904 -1.40460700559
N 4.700338e-06 -1.549985e-06 -1.880002594367
H 0.764363411351 -0.049909863648 -1.200482343657
H -0.134902791499 -0.919423348535 -2.310132475909
H 0.231783828846 0.685256967281 -2.604742126959
H -0.396567996603 -0.875032811887 2.234423416106
N 2.164415e-06 4.774959e-06 1.879998065719
H 1.021892107607 -0.044556065444 1.92730689688
H -0.291022471452 0.137570400656 0.907923711596
H -0.334331709446 0.78195212362 2.450372850146
H 0.536194311104 0.866341912399 -1.932527592316
N -2.925796e-06 -4.727954e-06 -1.829999440618
H 0.600372508701 -0.727931266723 -1.432312199423
H -0.796537445217 0.163239502044 -1.207558864545
H -0.339988714759 -0.301584455371 -2.747609118702
H -0.578640675287 0.794405828992 2.117504614558
N 3.157443e-06 -4.335425e-06 1.829998431122
H 0.156279499404 -0.616533381113 2.632464935574
H -0.477924858835 -0.519632390465 1.088297894739
H 0.900242156303 0.341820180002 1.481754356394
H 0.282503929799 0.197598854039 -0.995784890148
N -1.541349e-06 -1.078245e-06 -1.96000526202
H -0.27124047575 0.872707164969 -2.42184139388
H 0.783261694543 -0.424296805014 -2.465000340754
H -0.794503725563 -0.645994230105 -1.957300261152
H -0.716172224879 -0.142069206331 2.677968133319
N 3.908054e-06 7.75197e-07 1.959996081658
H -0.071636600231 -0.739542488902 1.255420856363
H -0.139861536752 0.911077483752 1.513985904108
H 0.927616055002 -0.029476561753 2.392679547301
H 0.080380607327 0.066556822002 -0.921337296303
N -4.38478e-07 -3.62946e-07 -1.940005558598
H -0.978681344981 0.124825573817 -2.214022015689
H 0.572122917418 0.728871547104 -2.375859656179
H 0.326183916036 -0.920248894982 -2.248703786898
H -0.410925360097 -0.654171280225 1.267865459115
N 2.242396e-06 3.569798e-06 1.940003667452
H -0.444737721322 -0.12525551544 2.853786670269
H 1.004600000185 -0.180718446351 2.021680395619
H -0.148968078832 0.960095636946 1.616616506308
H -0.870845949257 0.537015273318 -1.757497234147
N 4.752187e-06 -2.930236e-06 -1.800000232235
H -0.181288586288 -0.967201145305 -1.516904509572
H 0.362685784262 0.013119840116 -2.757517047686
H 0.689382716017 0.417106754113 -1.168077986853
H 0.08862174669 -0.680981970286 2.559588242654
N -4.8327e-07 3.715921e-06 1.799995854897
H 0.823708331636 -0.055258483598 1.194246131372
H -0.840549150089 -0.206491110953 1.252834073352
H -0.071774206803 0.942679926011 2.193389151154
H 0.163324636938 0.484440201104 -2.627247039889
N -8.91448e-07 -2.643925e-06 -1.739995158134
H 0.897094336697 -0.187470345659 -1.283312705607
H -0.576640559362 0.587805587439 -1.131294602419
H -0.483766030305 -0.884738709713 -1.918212930314
H 0.466188659511 0.835125447063 1.374215669172
N -2.544064e-06 -4.557484e-06 1.740001996438
H -0.257495965322 0.154050396377 2.71900509102
H -0.843483807086 -0.188206549048 1.190759282056
H 0.634826463127 -0.800905968663 1.675992222185
H -0.654246032633 -0.477487388947 -1.213475876509
N 3.570376e-06 2.605942e-06 -1.840003419195
H -0.523105623332 0.580874460574 -2.501386447367
H 0.62935648885 0.59145383444 -1.289868400934
H 0.547945557057 -0.694877112181 -2.355221767639
H -0.36903234056 -0.728454912441 2.457845552946
N 2.014072e-06 3.975378e-06 1.839996628161
H 0.12097356258 0.867848316124 2.369803134997
H 0.903930517039 -0.29830054066 1.462536872379
H -0.655899721284 0.158851899926 1.06986128913
H -0.652573193673 -0.107954624692 -2.791702361414
N 3.560948e-06 5.89475e-07 -2.009995734179
H 0.318783167916 -0.922896488624 -1.701574925188
H 0.805196681557 0.555953923317 -2.311870077431
H -0.471456140207 0.474889005396 -1.234911911222
H 0.398381029135 -0.931792315105 1.862961933261
N -2.173717e-06 5.084849e-06 2.010000802695
H -0.960218172499 -0.089757014437 2.354109580867
H 0.563283148258 0.507270068037 2.698433858903
H -0.001415795152 0.514208605062 1.124483478485
H 0.37940264448 0.451552571926 -2.837089280574
N -2.070537e-06 -2.464508e-06 -1.999995432016
H 0.744347706103 -0.112746749931 -1.305938527921
H -0.747106990242 0.580318623629 -1.608064489608
H -0.376614591246 -0.919090206485 -2.248971177406
H 0.332126859298 0.966213345747 2.068469521217
N -1.81257e-06 -5.27282e-06 1.999999626688
H 0.27947266166 -0.39379637812 1.097056974223
H 0.409289907827 -0.555995971017 2.756242194342
H -1.020864244626 -0.016347730603 2.078236503482
H -0.130394084915 0.259369979445 -2.681982256359
N 7.11878e-07 -1.415287e-06 -1.699994641079
H 0.925242288302 0.306336871911 -1.386039661738
H -0.72072479415 0.450976119976 -1.129273870781
H -0.074133295593 -1.016663303243 -1.602778672666
H -0.805773182937 -0.25391924205 1.121364405174
N 4.39717e-06 1.38554e-06 1.700003158009
H -0.230961748412 0.822294013656 2.264779506081
H 0.237202106469 -0.78212575905 2.316900691152
H 0.799471724342 0.21373173267 1.096911521937
H 0.341034042748 0.95999501791 -2.123295221024
N -1.860865e-06 -5.239039e-06 -2.019999436475
H -1.00567533909 0.013874970844 -1.827876962597
H 0.175129603874 -0.519343226304 -2.884964878005
H 0.489537553296 -0.454453968579 -1.243870771754
H -0.419549644324 0.840750268964 2.427040092123
N 2.289357e-06 -4.588364e-06 2.019997778815
H 1.015736945936 0.030222047161 2.145903727559
H -0.377233233863 -0.829811179828 2.48654099309
H -0.218985882191 -0.041097384789 1.020546052715
H 0.088467369379 -0.961471098088 -1.43895541539
N -4.82597e-07 5.246405e-06 -1.780001861124
H -0.99031414122 0.256377932852 -1.825110099717
H 0.488195051524 0.634786984194 -1.141828329995
H 0.413658429367 0.070233272486 -2.714080294076
H -0.437100653861 0.921042428658 1.875856244459
N 2.385231e-06 -5.025769e-06 1.779999476777
H 1.016723077477 0.108700042952 1.725730774993
H -0.238739906065 -0.577201976019 2.591414283746
H -0.340915662469 -0.452470652625 0.927005964923
H 0.713172152881 0.733293954532 -1.902776986715
N -3.891401e-06 -4.001653e-06 -1.950000257639
H 0.450371821746 -0.903640236422 -2.120546797386
H -0.512063206046 -0.035657468452 -1.063957212076
H -0.651426688087 0.206059354858 -2.712715422731
H -1.003478452538 0.140089069548 1.801775156376
N 5.475721e-06 -7.64755e-07 1.950000808847
H 0.426959836013 0.881011491874 2.250017854856
H 0.142226612187 -0.711648761572 2.672412372272
H 0.434215910745 -0.309441178224 1.075783376724
H -0.396496526832 -0.289355152925 -2.938681621038
N 2.163475e-06 1.579276e-06 -2.039995096095
H -0.306762855693 0.952384313455 -1.822405572788
H -0.319021879613 -0.637659159878 -1.305038885377
H 1.022251195462 -0.02539194104 -2.093942067532
H 0.547056335314 -0.665400717377 2.593656759746
N -2.985141e-06 3.631217e-06 2.039996979037
H -0.971896936134 -0.005634141448 2.362290654963
H 0.391180636293 0.939718921269 2.151615695944
H 0.033701447725 -0.26873451847 1.052478873831
H 0.166397646868 0.042838873929 -2.83947571048
N -9.07674e-07 -2.336e-07 -1.829994491283
H 0.796221757831 -0.452224378314 -1.371730768221
H -0.111804359165 0.948991941789 -1.461942824685
H -0.85080242637 -0.539603188297 -1.646927243896
H -0.923787362762 -0.441083497254 1.855036231834
N 5.041059e-06 2.406984e-06 1.829999863771
H 0.093673139365 0.641173149266 2.622848661841
H 0.724375926737 -0.72150847954 1.88707043947
H 0.105668246794 0.521385380667 0.955046566899
H 0.133627027286 0.586966035594 -0.951640629214
N -7.29417e-07 -3.202875e-06 -1.780004520104
H -0.924209666793 0.181750199727 -2.181609289394
H 0.722005869289 0.217779327421 -2.472698847295
H 0.068586902137 -0.986451053028 -1.5139884196
H 0.540846199321 -0.534300727912 1.094016999216
N -2.95146e-06 2.915459e-06 1.780003743098
H -0.901491599816 -0.45961162275 1.936705827166
H 0.517817933761 0.045586129489 2.662234943763
H -0.157131521804 0.948285704919 1.426990211352
H 0.216775214915 -0.977624332534 -1.55593522949
N -1.183148e-06 5.33509e-06 -1.770001168452
H -0.039540847248 0.126400043095 -2.785355216433
H -0.905268017994 0.246576263451 -1.359826906685
H 0.728050087303 0.604573894702 -1.378866416323
H 0.517259401241 -0.452505062513 2.529108974763
N -2.822778e-06 2.46971e-06 1.769995857445
H -0.042511102366 1.008859500847 1.939946988339
H 0.475408185012 -0.176551823848 0.88041104131
H -0.950117261112 -0.379836925834 1.730590557509
H 0.6242437092 0.791073889102 -2.111896811064
N -3.406258e-06 -4.316875e-06 -1.929999007696
H 0.552348891296 -0.857919083982 -1.844138412731
H -0.513734835957 0.163759897202 -1.05947646903
H -0.662810427937 -0.096854716093 -2.704502101418
H -0.642176794349 -0.074365955429 2.724130484142
N 3.504126e-06 4.05507e-07 1.929995666487
H -0.238911904744 -0.708459110559 1.230361911226
H -0.079323851028 0.931873776326 1.513021588777
H 0.960363853705 -0.14905435065 2.252546234031
H 0.17277954419 0.996739754041 -1.511186753575
N -9.43102e-07 -5.439461e-06 -1.670000866429
H 0.58272248046 -0.552835032564 -1.034945197514
H -0.987361660349 -0.207383841988 -1.494897462113
H 0.231872736385 -0.236445298934 -2.638958543324
H 0.616607060315 0.599473637961 1.114129829928
N -3.364903e-06 -3.271728e-06 1.670003033331
H -0.89659753222 0.473044149974 1.814321729123
H -0.155551834542 -0.882496966966 1.17446520283
H 0.435589062696 -0.189975365214 2.577041086951
H -0.046665385474 -1.01125226048 -1.685870953371
N 2.54302e-07 5.518612e-06 -1.840000841097
H 0.953059828865 0.328888949963 -1.661126622952
H -0.257337253468 0.209844475319 -2.808656202587
H -0.649060729906 0.472442154003 -1.204334533732
H 0.900318662144 -0.486846787379 1.87116196008
N -4.913037e-06 2.657127e-06 1.839999829888
H 0.019241585179 0.706002467247 1.098597988498
H -0.746419390851 -0.674654652939 1.649602531369
H -0.173072586395 0.455462057687 2.740639882784
H 0.159208947447 0.817834262877 -1.20471503848
N -8.68602e-07 -4.463166e-06 -1.800003248224
H 0.550153077645 -0.789389214126 -1.449738776175
H -0.994389196478 -0.244015812892 -1.785914082632
H 0.285039244814 0.215632778543 -2.759586961994
H -0.522794885111 0.586921779775 1.143667090249
N 2.852839e-06 -3.203162e-06 1.800003581388
H -0.043178628544 0.41282354535 2.736055014471
H -0.410854367349 -0.937710275125 1.821216356102
H 0.976788237893 -0.061990545757 1.499011769368
H 0.956243831962 -0.008769717488 -1.523823292545
N -5.21863e-06 4.7923e-08 -1.890001998174
H -0.573727985752 0.637771833795 -1.330920442735
H 0.010444360507 0.315346937521 -2.864165914318
H -0.392887697541 -0.944349718558 -1.841062583459
H 0.998575812311 -0.170352660645 1.740364197895
N -5.44962e-06 9.29621e-07 1.890000816422
H -0.119621059993 0.808063374451 2.507422909491
H -0.452748227045 0.187454554831 0.990871623322
H -0.42613080605 -0.825178186246 2.321329922029
H 0.303045193063 0.977620422769 -1.978591776835
N -1.653391e-06 -5.334668e-06 -2.010000171401
H -0.246113310277 -0.311528284938 -1.066143533028
H -0.817152057664 -0.084554027775 -2.621281551201
H 0.760243155732 -0.581463977463 -2.373980757312
H -0.848768675158 -0.572690301885 2.02349484104
N 4.631627e-06 3.124799e-06 2.009999926346
H 0.822923559412 -0.609328516469 2.011496336542
H 0.006660543457 0.580521040622 1.166493649994
H 0.01912021078 0.601454349834 2.838516195672
H -0.23871086499 -0.993359067634 -2.119422192803
N 1.302634e-06 5.421158e-06 -2.049999621288
H -0.852414822264 0.545867347583 -1.8953892811
H 0.643400024035 0.142443233266 -1.266228133556
H 0.447707562021 0.304973163165 -2.918965657241
H 0.039451510624 -0.97098845487 2.372784067122
N -2.15194e-07 5.29909e-06 2.049998238589
H 0.541564825949 0.09477796518 1.186164748862
H -0.974043796563 0.26139670709 1.872623428036
H 0.393030451919 0.614740155349 2.768452232389
H -0.954074871054 -0.363375070065 -1.890852951266
N 5.206128e-06 1.982977e-06 -1.970000431618
H -0.03107909826 1.015345748104 -2.098816791757
H 0.520918839271 -0.219972550923 -1.116297684029
H 0.464162782673 -0.432025681246 -2.774026570174
H 0.704782205706 -0.085123361036 1.232029395998
N -3.845636e-06 4.64662e-07 1.970004027088
H -0.806503480074 -0.587943579982 1.741174417947
H 0.401380954078 -0.303252401579 2.861898713514
H -0.299606235491 0.97631288837 2.044841513057
H 1.008777372017 0.17489555861 -2.031444305632
N -5.504591e-06 -9.54511e-07 -2.050000101469
H -0.171311192301 -1.009502578056 -2.056609444745
H -0.433560181983 0.414359529429 -1.220009787634
H -0.403829502146 0.42026075171 -2.891935055776
H -0.830564170526 0.263100721782 2.588057362505
N 4.532009e-06 -1.435814e-06 2.049997063804
H -0.007160871183 0.48890605073 1.150329916133
H 0.841516914572 0.259254742711 2.572674147566
H -0.003854855052 -1.011241564908 1.888979373964
H -0.679889248343 -0.75920911854 -1.570417469981
N 3.709851e-06 4.143259e-06 -1.670000543377
H -0.428226598255 0.882400070158 -1.375927284799
H 0.817180863361 -0.194658278183 -1.084444199837
H 0.290883426845 0.071409757679 -2.649203493981
H 0.809105090501 -0.616143498847 1.550498128357
N -4.415035e-06 3.362603e-06 1.670000652085
H -0.857440355019 -0.517273586442 1.45619930314
H -0.034935323353 0.333714761363 2.637453350661
H 0.083331942331 0.799655603745 1.035840156013
H -0.91384027319 0.461685968502 -2.077509367025
N 4.986667e-06 -2.519301e-06 -2.059999904787
H 0.716250125492 0.647809299361 -2.400316814023
H 0.222054344751 -0.281092164484 -1.100713251099
H -0.024533493088 -0.828368093816 -2.661461896911
H 0.449825517381 -0.326791065516 2.919900668543
N -2.454349e-06 1.783124e-06 2.059995307514
H 0.51637704668 -0.352983651608 1.249294164191
H -0.963873767284 -0.344108639124 2.027005924365
H -0.002294685659 1.023858575381 2.043864448088
H 0.791691224826 -0.041121729477 -1.15184989123
N -4.320174e-06 2.24593e-07 -1.800003537304
H -0.80462111554 0.423921750386 -1.32950890122
H 0.255246963304 0.56471776865 -2.615165525941
H -0.242257039268 -0.947520907003 -2.103426534573
H -0.252960300714 -0.488042537761 2.66393872653
N 1.380099e-06 2.663273e-06 1.799995285218
H -0.122908905625 -0.631020213069 1.003009688613
H -0.602134343435 0.819835318467 1.682287265431
H 0.977984366883 0.299190424791 1.850829829774
