8
Coordinates from XML
C -0.290766688546 -0.424161727147 -0.424867594649
C 0.028115418702 0.030253074544 -1.892540627627
O 1.197894991112 -0.271029637727 -2.348242791677
O -0.928163988829 0.665556615635 -2.488254654049
H 0.55524810527 -0.968287221599 0.01248039908
H -0.521792928975 0.461012961386 0.186342771771
H -1.186315644111 -1.06300643089 -0.428521800946
Cl -1.794384e-05 -2.7261615e-05 3.014103990121
