8
Coordinates from XML
C -0.576553335173 -1.330334682967 -1.559782801475
C 0.041353670987 0.105596168453 -1.695930749422
O -0.379192083601 0.823147027075 -2.683393162201
O 0.915353206786 0.412650969581 -0.793268987524
H -1.318283589728 -1.517028300795 -2.345956176263
H 0.228122029374 -2.078226286824 -1.62012492256
H -1.045288789016 -1.432074849045 -0.56979297655
Cl -3.7035824e-05 -8.444137e-05 2.838207052301
