8
Coordinates from XML
C -1.450416350413 0.081013663702 -2.121589538705
C 0.114155830399 -0.005345837083 -2.038531307904
O 0.754146895071 0.032865776122 -3.159143324981
O 0.593357631309 -0.108423536461 -0.841578210342
H -1.785528847243 0.181930858421 -3.161109710209
H -1.887476418978 -0.824224675832 -1.674367546727
H -1.799046656685 0.940304474497 -1.52979561125
Cl -9.2159249e-05 5.244838e-06 3.440997391628
