8
Coordinates from XML
C -0.871912759477 -1.030044275656 -0.899730538286
C 0.073127759955 0.076951441162 -1.485991266658
O 1.333320463337 -0.201155119007 -1.523288379087
O -0.523655748972 1.158574892834 -1.869261730081
H -0.302927148771 -1.921974163287 -0.610242536732
H -1.404037006932 -0.626310256321 -0.025471942729
H -1.630099834819 -1.29606382316 -1.651082519497
Cl -5.4944859e-05 -6.586238e-05 2.436365385848
