8
Coordinates from XML
C -0.876144610327 1.15883087458 -2.209376072079
C 0.0701959573 -0.090181213023 -2.127821935844
O 0.600858618123 -0.485030245486 -3.236565082399
O 0.212858687888 -0.59179909516 -0.944190683516
H -0.938692987225 1.540298737738 -3.235853944519
H -1.878564287397 0.877712175468 -1.853549522991
H -0.498806891286 1.945265440204 -1.539091982815
Cl -5.555009e-05 7.3731138e-05 3.59169837224
