8
Coordinates from XML
C -1.439388599955 0.21272628634 -1.712164490219
C 0.11274878564 -0.01763796756 -1.70548700449
O 0.669364804947 -0.162074863966 -0.549573265031
O 0.667982858877 -0.035281681577 -2.873545187604
H -1.844604932437 0.200648622212 -0.6929781939
H -1.660249264376 1.178543525575 -2.190602670462
H -1.920575510033 -0.570349827536 -2.31664343773
Cl -9.1511684e-05 1.343289e-05 2.888433957569
