8
Coordinates from XML
C 0.903326675961 -1.13965457453 -1.693575904468
C -0.068334876633 0.091590528536 -1.739966263801
O -0.03127018773 0.893902362489 -0.729153762396
O -0.808361395167 0.164617781821 -2.798259166551
H 1.509143505596 -1.130151156923 -0.779255114663
H 0.314570893795 -2.067828013743 -1.742013087617
H 1.557742775519 -1.119878589037 -2.577596446976
Cl 5.7671383e-05 -7.222552e-05 2.938670565193
