8
Coordinates from XML
C 0.144069582485 1.111633837954 -1.587788592373
C -0.043549109635 -0.390828633226 -1.21846358741
O 0.648694795463 -1.233509075097 -1.89184401832
O -0.880711430985 -0.618486222873 -0.272731129377
H 0.878422421763 1.230617353716 -2.385637960084
H -0.815896708146 1.534012990686 -1.902925212061
H 0.464134054987 1.670168326634 -0.702149581074
Cl 0.056451943705 0.471944082542 2.096922845614
