8
Coordinates from XML
C 0.93673382246 -0.636063700235 -1.968842091897
C -0.325386530549 0.221910857931 -1.652729639931
O -0.600436757795 0.394936294555 -0.412905972323
O -0.955796819213 0.661998402207 -2.680340672331
H 1.429038273648 -0.962187966593 -1.05163215226
H 0.646824952792 -1.50891871188 -2.563255662413
H 1.634696449023 -0.051939810682 -2.577451945179
Cl 0.395096198624 -0.268609233528 2.836120266238
