8
Coordinates from XML
C 0.93673382246 -0.636063700235 -2.043258031671
C -0.325386530549 0.221910857931 -1.727145579705
O -0.600436757795 0.394936294555 -0.487321912096
O -0.955796819213 0.661998402207 -2.754756612104
H 1.429038273648 -0.962187966593 -1.126048092033
H 0.646824952792 -1.50891871188 -2.637671602186
H 1.634696449023 -0.051939810682 -2.651867884953
Cl 0.395096198624 -0.268609233528 2.961704326465
