8
Coordinates from XML
C 0.93673382246 -0.636063700235 -2.40789613656
C -0.325386530549 0.221910857931 -2.091783684594
O -0.600436757795 0.394936294555 -0.851960016985
O -0.955796819213 0.661998402207 -3.119394716993
H 1.429038273648 -0.962187966593 -1.490686196922
H 0.646824952792 -1.50891871188 -3.002309707075
H 1.634696449023 -0.051939810682 -3.016505989842
Cl 0.395096198624 -0.268609233528 3.577066221576
