8
Coordinates from XML
C 0.93673382246 -0.636063700235 -2.765092647471
C -0.325386530549 0.221910857931 -2.448980195505
O -0.600436757795 0.394936294555 -1.209156527897
O -0.955796819213 0.661998402207 -3.476591227905
H 1.429038273648 -0.962187966593 -1.847882707834
H 0.646824952792 -1.50891871188 -3.359506217987
H 1.634696449023 -0.051939810682 -3.373702500753
Cl 0.395096198624 -0.268609233528 4.179869710664
