8
Coordinates from XML
C -0.018579368984 0.613076450544 -0.353475064441
C 0.014873199802 -0.217616172649 -1.67174131283
O 1.103301348432 -0.846934302189 -1.92081161032
O -1.062001100074 -0.176301192354 -2.368672749387
H 0.920921849111 0.519543737785 0.192953225436
H -0.206181125789 1.666039102531 -0.588689331108
H -0.848652560759 0.272554913732 0.274045516258
Cl -0.013759679752 0.261480362486 2.660515524801
