8
Coordinates from XML
C -0.018579368984 0.613076450544 -0.420449410237
C 0.014873199802 -0.217616172649 -1.738715658626
O 1.103301348432 -0.846934302189 -1.987785956116
O -1.062001100074 -0.176301192354 -2.435647095183
H 0.920921849111 0.519543737785 0.12597887964
H -0.206181125789 1.666039102531 -0.655663676904
H -0.848652560759 0.272554913732 0.207071170462
Cl -0.013759679752 0.261480362486 2.773541179005
