8
Coordinates from XML
C -0.018579368984 0.613076450544 -0.450215786146
C 0.014873199802 -0.217616172649 -1.768482034535
O 1.103301348432 -0.846934302189 -2.017552332026
O -1.062001100074 -0.176301192354 -2.465413471092
H 0.920921849111 0.519543737785 0.096212503731
H -0.206181125789 1.666039102531 -0.685430052813
H -0.848652560759 0.272554913732 0.177304794553
Cl -0.013759679752 0.261480362486 2.823774803096
