8
Coordinates from XML
C -0.018579368984 0.613076450544 -0.479982162056
C 0.014873199802 -0.217616172649 -1.798248410444
O 1.103301348432 -0.846934302189 -2.047318707935
O -1.062001100074 -0.176301192354 -2.495179847001
H 0.920921849111 0.519543737785 0.066446127821
H -0.206181125789 1.666039102531 -0.715196428723
H -0.848652560759 0.272554913732 0.147538418644
Cl -0.013759679752 0.261480362486 2.874008427187
