8
Coordinates from XML
C -0.018579368984 0.613076450544 -0.576722883761
C 0.014873199802 -0.217616172649 -1.89498913215
O 1.103301348432 -0.846934302189 -2.14405942964
O -1.062001100074 -0.176301192354 -2.591920568706
H 0.920921849111 0.519543737785 -0.030294593884
H -0.206181125789 1.666039102531 -0.811937150428
H -0.848652560759 0.272554913732 0.050797696939
Cl -0.013759679752 0.261480362486 3.037267705481
