8
Coordinates from XML
C -0.018579368984 0.613076450544 -0.60648925967
C 0.014873199802 -0.217616172649 -1.924755508059
O 1.103301348432 -0.846934302189 -2.17382580555
O -1.062001100074 -0.176301192354 -2.621686944616
H 0.920921849111 0.519543737785 -0.060060969793
H -0.206181125789 1.666039102531 -0.841703526337
H -0.848652560759 0.272554913732 0.021031321029
Cl -0.013759679752 0.261480362486 3.087501329572
