8
Coordinates from XML
C -0.018579368984 0.613076450544 -0.636255635579
C 0.014873199802 -0.217616172649 -1.954521883968
O 1.103301348432 -0.846934302189 -2.203592181459
O -1.062001100074 -0.176301192354 -2.651453320525
H 0.920921849111 0.519543737785 -0.089827345702
H -0.206181125789 1.666039102531 -0.871469902247
H -0.848652560759 0.272554913732 -0.00873505488
Cl -0.013759679752 0.261480362486 3.137734953663
