8
Coordinates from XML
C -0.018579368984 0.613076450544 -0.673463605466
C 0.014873199802 -0.217616172649 -1.991729853855
O 1.103301348432 -0.846934302189 -2.240800151345
O -1.062001100074 -0.176301192354 -2.688661290412
H 0.920921849111 0.519543737785 -0.127035315589
H -0.206181125789 1.666039102531 -0.908677872133
H -0.848652560759 0.272554913732 -0.045943024767
Cl -0.013759679752 0.261480362486 3.200526983776
