8
Coordinates from XML
C -0.018579368984 0.613076450544 -0.762762733194
C 0.014873199802 -0.217616172649 -2.081028981583
O 1.103301348432 -0.846934302189 -2.330099279073
O -1.062001100074 -0.176301192354 -2.77796041814
H 0.920921849111 0.519543737785 -0.216334443317
H -0.206181125789 1.666039102531 -0.997976999861
H -0.848652560759 0.272554913732 -0.135242152495
Cl -0.013759679752 0.261480362486 3.351227856048
