8
Coordinates from XML
C -0.018579368984 0.613076450544 -0.889269830809
C 0.014873199802 -0.217616172649 -2.207536079197
O 1.103301348432 -0.846934302189 -2.456606376688
O -1.062001100074 -0.176301192354 -2.904467515754
H 0.920921849111 0.519543737785 -0.342841540932
H -0.206181125789 1.666039102531 -1.124484097476
H -0.848652560759 0.272554913732 -0.261749250109
Cl -0.013759679752 0.261480362486 3.564720758434
