8
Coordinates from XML
C -0.018579368984 0.613076450544 -0.919036206718
C 0.014873199802 -0.217616172649 -2.237302455107
O 1.103301348432 -0.846934302189 -2.486372752597
O -1.062001100074 -0.176301192354 -2.934233891663
H 0.920921849111 0.519543737785 -0.372607916841
H -0.206181125789 1.666039102531 -1.154250473385
H -0.848652560759 0.272554913732 -0.291515626018
Cl -0.013759679752 0.261480362486 3.614954382524
