8
Coordinates from XML
C -0.018579368984 0.613076450544 -0.978568958536
C 0.014873199802 -0.217616172649 -2.296835206925
O 1.103301348432 -0.846934302189 -2.545905504416
O -1.062001100074 -0.176301192354 -2.993766643482
H 0.920921849111 0.519543737785 -0.432140668659
H -0.206181125789 1.666039102531 -1.213783225204
H -0.848652560759 0.272554913732 -0.351048377837
Cl -0.013759679752 0.261480362486 3.715421630706
