8
Coordinates from XML
C -0.018579368984 0.613076450544 -1.015776928423
C 0.014873199802 -0.217616172649 -2.334043176812
O 1.103301348432 -0.846934302189 -2.583113474302
O -1.062001100074 -0.176301192354 -3.030974613369
H 0.920921849111 0.519543737785 -0.469348638546
H -0.206181125789 1.666039102531 -1.25099119509
H -0.848652560759 0.272554913732 -0.388256347724
Cl -0.013759679752 0.261480362486 3.778213660819
