8
Coordinates from XML
C -0.018579368984 0.613076450544 -1.075309680242
C 0.014873199802 -0.217616172649 -2.39357592863
O 1.103301348432 -0.846934302189 -2.642646226121
O -1.062001100074 -0.176301192354 -3.090507365187
H 0.920921849111 0.519543737785 -0.528881390365
H -0.206181125789 1.666039102531 -1.310523946909
H -0.848652560759 0.272554913732 -0.447789099542
Cl -0.013759679752 0.261480362486 3.878680909001
