8
Coordinates from XML
C -0.018579368984 0.613076450544 -1.16460880797
C 0.014873199802 -0.217616172649 -2.482875056358
O 1.103301348432 -0.846934302189 -2.731945353849
O -1.062001100074 -0.176301192354 -3.179806492915
H 0.920921849111 0.519543737785 -0.618180518093
H -0.206181125789 1.666039102531 -1.399823074637
H -0.848652560759 0.272554913732 -0.53708822727
Cl -0.013759679752 0.261480362486 4.029381781273
