8
Coordinates from XML
C 0.064317356284 0.700149494062 -0.832553192391
C -0.029301998644 -0.249467998928 -2.064810163813
O -0.825972266691 -1.247515277487 -1.955396865902
O 0.71132875618 0.076661084322 -3.060894757939
H -0.600847966144 0.371585990551 -0.032805794061
H 1.096512740705 0.726060235757 -0.467653427082
H -0.193948624081 1.720300801338 -1.13479232551
Cl 0.031726856801 0.299682047088 3.335870496186
