8
Coordinates from XML
C 0.064317356284 0.700149494062 -1.026034635801
C -0.029301998644 -0.249467998928 -2.258291607223
O -0.825972266691 -1.247515277487 -2.148878309312
O 0.71132875618 0.076661084322 -3.25437620135
H -0.600847966144 0.371585990551 -0.226287237471
H 1.096512740705 0.726060235757 -0.661134870492
H -0.193948624081 1.720300801338 -1.328273768921
Cl 0.031726856801 0.299682047088 3.662389052776
