8
Coordinates from XML
C 0.064317356284 0.700149494062 -1.323698394895
C -0.029301998644 -0.249467998928 -2.555955366316
O -0.825972266691 -1.247515277487 -2.446542068405
O 0.71132875618 0.076661084322 -3.552039960443
H -0.600847966144 0.371585990551 -0.523950996564
H 1.096512740705 0.726060235757 -0.958798629585
H -0.193948624081 1.720300801338 -1.625937528014
Cl 0.031726856801 0.299682047088 4.164725293682
