8
Coordinates from XML
C 0.16197368492 0.432395751205 -0.280900067445
C -0.065350528737 -0.14790287462 -1.709386125123
O -1.255331690832 -0.05949296035 -2.177234045827
O 0.975165195942 -0.656586610734 -2.262239176031
H -0.758141590711 0.860121035863 0.119641745045
H 0.520988762005 -0.360482404993 0.383707275824
H 0.943199176561 1.198694299007 -0.315996602679
Cl 0.074643287021 0.180963747911 2.708227571966
