8
Coordinates from XML
C 0.16197368492 0.432395751205 -0.318108037332
C -0.065350528737 -0.14790287462 -1.746594095009
O -1.255331690832 -0.05949296035 -2.214442015714
O 0.975165195942 -0.656586610734 -2.299447145918
H -0.758141590711 0.860121035863 0.082433775158
H 0.520988762005 -0.360482404993 0.346499305937
H 0.943199176561 1.198694299007 -0.353204572566
Cl 0.074643287021 0.180963747911 2.771019602079
