8
Coordinates from XML
C 0.16197368492 0.432395751205 -0.340432819264
C -0.065350528737 -0.14790287462 -1.768918876941
O -1.255331690832 -0.05949296035 -2.236766797646
O 0.975165195942 -0.656586610734 -2.32177192785
H -0.758141590711 0.860121035863 0.060108993226
H 0.520988762005 -0.360482404993 0.324174524005
H 0.943199176561 1.198694299007 -0.375529354498
Cl 0.074643287021 0.180963747911 2.808694820147
