8
Coordinates from XML
C 0.16197368492 0.432395751205 -0.377640789151
C -0.065350528737 -0.14790287462 -1.806126846828
O -1.255331690832 -0.05949296035 -2.273974767533
O 0.975165195942 -0.656586610734 -2.358979897737
H -0.758141590711 0.860121035863 0.022901023339
H 0.520988762005 -0.360482404993 0.286966554119
H 0.943199176561 1.198694299007 -0.412737324384
Cl 0.074643287021 0.180963747911 2.871486850261
