8
Coordinates from XML
C 0.16197368492 0.432395751205 -0.437173540969
C -0.065350528737 -0.14790287462 -1.865659598647
O -1.255331690832 -0.05949296035 -2.333507519351
O 0.975165195942 -0.656586610734 -2.418512649555
H -0.758141590711 0.860121035863 -0.036631728479
H 0.520988762005 -0.360482404993 0.2274338023
H 0.943199176561 1.198694299007 -0.472270076203
Cl 0.074643287021 0.180963747911 2.971954098442
