8
Coordinates from XML
C 0.16197368492 0.432395751205 -0.459498322901
C -0.065350528737 -0.14790287462 -1.887984380579
O -1.255331690832 -0.05949296035 -2.355832301283
O 0.975165195942 -0.656586610734 -2.440837431487
H -0.758141590711 0.860121035863 -0.058956510411
H 0.520988762005 -0.360482404993 0.205109020368
H 0.943199176561 1.198694299007 -0.494594858135
Cl 0.074643287021 0.180963747911 3.00962931651
