8
Coordinates from XML
C 0.16197368492 0.432395751205 -0.51903107472
C -0.065350528737 -0.14790287462 -1.947517132397
O -1.255331690832 -0.05949296035 -2.415365053102
O 0.975165195942 -0.656586610734 -2.500370183306
H -0.758141590711 0.860121035863 -0.11848926223
H 0.520988762005 -0.360482404993 0.145576268549
H 0.943199176561 1.198694299007 -0.554127609954
Cl 0.074643287021 0.180963747911 3.110096564692
