9
Coordinates from XML
H 0.947389293508 -0.317691749804 -2.693780612627
N -1.7861284e-05 -7.978707e-06 -2.470011301438
H 0.050475226005 0.847545881078 -1.897660226572
H -0.505543993081 0.203214610637 -3.337013088778
H -0.49229945134 -0.733131680545 -1.951613130245
O 1.093575817662 -0.363929973286 1.120523929214
O -0.966645752388 0.461075161135 0.544515725729
C -0.124247847494 -0.095085428901 1.298158192633
H -0.534847316422 -0.409424917801 2.316934430005
