9
Coordinates from XML
H 0.95729933007 0.031168921027 -2.53627027432
N -3.0008377e-05 -2.5166994e-05 -2.898380018211
H -0.373758873072 0.95145798254 -2.957451177385
H 0.001176807334 -0.424732440121 -3.830136674076
H -0.584743808646 -0.557992085125 -2.269626584784
O -0.158360279093 0.517583794814 0.135744499378
O 0.406255252912 -0.267570758078 2.214608003577
C -0.242643335277 -0.244720439815 1.135101502809
H -1.044717011705 -1.053596669849 1.047332931739
