9
Coordinates from XML
H 0.698175996259 -0.283093539687 -2.019240895196
N -2.1230514e-05 1.7574666e-05 -2.712742682833
H 0.412751536573 -0.040798378086 -3.64892404921
H -0.803577416466 -0.632967763307 -2.666103558375
H -0.307366855101 0.956902332174 -2.516634503767
O -0.674892531575 0.324798449002 0.201556006861
O 0.849139184378 -0.485131194853 1.71095096537
C -0.17055199283 0.156934822238 1.343654174178
H -0.734375744321 0.675714144613 2.191166446614
