9
Coordinates from XML
H 0.515915318487 -0.858903724691 -2.230139274055
N 2.2243468e-05 2.228442e-05 -2.441507308585
H 0.644651761105 0.795572207389 -2.435511055251
H -0.433638842195 -0.080954555821 -3.365590099317
H -0.726788883343 0.144291331308 -1.734768164309
O -0.706491743682 0.888788728951 1.215840497849
O 0.45586197853 -1.064806029305 0.91695392242
C 0.245325196257 0.172283900127 0.80646152536
H 1.056182754109 0.741852519628 0.237771918849
