9
Coordinates from XML
H -0.71668798898 0.712246438659 -3.146050076589
N 8.46067e-07 3.1262235e-05 -3.312431133774
H 0.878574470552 0.455029752738 -3.576187858807
H 0.141929422656 -0.547296706385 -2.458711880206
H -0.303882509102 -0.619784883807 -4.068758471344
O 0.758953603954 -0.07953940392 2.201106387661
O -0.728306550709 -0.272016783589 0.466764572831
C -0.030002295077 0.344110248812 1.315106748201
H -0.129103938091 1.481561063019 1.273987779209
