297
Coordinates from XML
H -0.992065662805 -0.186024603098 -2.41171193704
N 9.225655e-06 -1.7889351e-05 -2.584237060222
H 0.151094278447 1.010477311954 -2.651732282
H 0.557285014785 -0.377684107252 -1.812641238107
H 0.283626389878 -0.446858323725 -3.460845935586
O -0.767920608411 -0.677385120212 0.490896334866
O 0.729799094461 0.866472548394 1.284792443129
C 0.037318490337 -0.185078407121 1.32525231051
H 0.160603014507 -0.796919532819 2.282204567942
H 0.811829613642 0.561309631403 -2.996748572835
N -1.6721009e-05 3.0028974e-05 -3.269597866057
H -0.68683668008 0.00160977163 -2.510151555753
H -0.42264401032 0.398584241003 -4.112858741708
H 0.297663474592 -0.961328715679 -3.458605948494
O 0.049020693959 -0.150815419283 2.459426704575
O 0.07391251565 -0.18016712001 0.166949722165
C -0.120329614929 0.323972787998 1.304947414545
H -0.518075206604 1.394852440166 1.287017694104
H -1.021254490305 0.07474223675 -3.026628355978
N 1.6398138e-05 3.141902e-05 -3.026885518898
H 0.409030652751 0.91393242645 -3.241303657455
H 0.319842270552 -0.309154491055 -2.10457121545
H 0.29234742607 -0.679387200085 -3.735038821595
O 0.631306140226 -0.082035717286 2.182725070932
O -0.73958591011 -0.236294188771 0.351389178667
C 0.105982622675 0.311587756217 1.107540638839
H 0.456367892501 1.341535063088 0.758620923495
H 0.370470438882 -0.291885719254 -2.260745703036
N -1.2871389e-05 -3.0309533e-05 -3.169667336967
H -0.044139568551 -0.808935241445 -3.795932852324
H -0.939596218856 0.388021660982 -3.046594223161
H 0.613250042979 0.71264956008 -3.575307807468
O 0.347526207707 -0.27660916941 2.341848965678
O -0.239010365983 0.595696767123 0.304205954546
C -0.106219349248 -0.312327326711 1.167214987461
H -0.457295416563 -1.344752888357 0.826408129227
H 0.698669991461 0.504209927682 -2.002385281169
N -1.4301193e-05 -3.2973523e-05 -2.555698353292
H -0.414567230923 0.635616618398 -3.243141670769
H 0.448597226919 -0.782181583877 -3.041022408092
H -0.73268896134 -0.357727613824 -1.936190018661
O 1.132043647716 -0.066037737745 1.26825135961
O -1.027146882405 0.368318325039 0.630942246733
C -0.102681462352 -0.295877526859 1.170509997295
H -0.441989526241 -1.273908458816 1.653864726158
H -0.460408776941 0.501801834648 -2.419233117701
N 2.0279332e-05 -2.9955432e-05 -3.183919941573
H 0.214115964219 0.654575784823 -3.941638367203
H 0.868129637871 -0.42162239592 -2.841583636545
H -0.621800671596 -0.734826038269 -3.533149968397
O -0.508303844194 0.387468467241 2.244004570514
O 0.330604376726 -0.11524729781 0.170253935447
C 0.17393850865 -0.266457425143 1.411026720114
H 0.748845556233 -1.147197566059 1.85721608666
H 0.947389293508 -0.317691749804 -2.693780612627
N -1.7861284e-05 -7.978707e-06 -2.470011301438
H 0.050475226005 0.847545881078 -1.897660226572
H -0.505543993081 0.203214610637 -3.337013088778
H -0.49229945134 -0.733131680545 -1.951613130245
O 1.093575817662 -0.363929973286 1.120523929214
O -0.966645752388 0.461075161135 0.544515725729
C -0.124247847494 -0.095085428901 1.298158192633
H -0.534847316422 -0.409424917801 2.316934430005
H 0.32655571394 -0.845571946349 -3.217702050495
N -7.574537e-06 -1.6429604e-05 -2.741290162818
H -0.914700336708 -0.178882437657 -2.317230082175
H 0.669407988547 0.26071648599 -2.011598898908
H -0.081261772981 0.763589605821 -3.418676144293
O -0.842257666012 0.77517382754 1.286052488727
O 0.900202206784 -0.564702256604 0.633750786419
C -0.056712337102 -0.206017999208 1.370355130145
H -0.24425417874 -0.886938972877 2.268397971691
H -0.221206974191 -0.999553215994 -2.921966200776
N 1.7399933e-05 -1.3104745e-05 -2.898400499053
H -0.868397754359 0.542245699706 -2.915528219015
H 0.519539139471 0.214474941865 -2.042456441296
H 0.570113584867 0.242682544104 -3.713653436461
O 0.76438083131 -0.164798180253 2.01834199716
O -0.926347570187 0.350427312377 0.5578927498
C 0.158531665414 -0.181696323146 0.913992849042
H 0.682630544673 -0.782309930027 0.095524816686
H -0.80126606828 0.635427717804 -3.221629879502
N 2.3949269e-05 -3.0714568e-05 -3.169640568056
H 0.820281615479 0.511877868344 -2.832580018949
H -0.213161279097 -0.766043379717 -2.524408171754
H 0.194163277995 -0.381323008216 -4.099949279101
O 0.228095506804 -0.065299754866 0.134958593677
O -0.423904408584 0.337824646235 2.2958192249
C 0.191660108081 -0.266752097974 1.377945003569
H 0.825214988096 -1.148508699943 1.733500581354
H 0.426117307657 -0.752975366388 -3.346166075381
N 5.17661e-07 2.7244471e-05 -2.798454883856
H 0.688986916334 0.741553391319 -2.643795367549
H -0.802534852166 0.380630848246 -3.307990031781
H -0.312525688215 -0.369173430704 -1.895921548133
O -0.195640377835 0.746784947609 1.987269611064
O 0.167207418423 -0.978192603295 0.521075297331
C 0.02783184401 0.226501839158 0.861973448659
H 0.119811824388 0.975274841888 0.003961249683
H 0.857628622232 -0.532292712178 -2.911632405335
N -2.2365508e-05 -2.4360088e-05 -3.083972721546
H -0.765738507062 -0.399003778529 -2.533539197654
H 0.1436884666 0.976453971771 -2.811235752755
H -0.235584288824 -0.045306900746 -4.07946670033
O 0.03236935324 -0.351413860173 0.131088361
O 0.144520304594 0.624117312918 2.202969857234
C -0.17314310222 -0.266925223325 1.371069046694
H -0.745465518218 -1.149280898127 1.817389307596
H -0.060167095344 -0.704705723739 -2.272095530368
N 3.2714398e-05 9.033383e-06 -3.012587997582
H 0.084770222659 -0.465484355484 -3.920672965862
H -0.845011508682 0.578244096791 -3.002961862095
H 0.82053336007 0.591913296163 -2.854549318286
O -0.49696227919 -0.464841265019 2.146739005195
O 0.173043045756 0.412956269777 0.137386822911
C 0.317061092117 0.050788692647 1.335309712081
H 1.365061666684 0.218627437336 1.758194107027
H 0.777444731845 0.431686431607 -2.347771657633
N 2.8702498e-05 -1.5041121e-05 -2.855545382592
H -0.66939199464 0.72314694135 -3.13374589904
H 0.358213362495 -0.472857791702 -3.690213983036
H -0.466075370174 -0.681993587394 -2.250400403382
O 0.113532420284 0.812868325715 0.324850238325
O -0.443046460354 -0.685996242231 1.968187329911
C 0.322533865935 -0.124189471628 1.140427874209
H 1.388681919676 -0.534622277865 1.127030147986
H 0.95729933007 0.031168921027 -2.53627027432
N -3.0008377e-05 -2.5166994e-05 -2.898380018211
H -0.373758873072 0.95145798254 -2.957451177385
H 0.001176807334 -0.424732440121 -3.830136674076
H -0.584743808646 -0.557992085125 -2.269626584784
O -0.158360279093 0.517583794814 0.135744499378
O 0.406255252912 -0.267570758078 2.214608003577
C -0.242643335277 -0.244720439815 1.135101502809
H -1.044717011705 -1.053596669849 1.047332931739
H 0.524578119674 -0.869559190781 -3.200944132983
N 1.8367648e-05 3.2895514e-05 -3.069708962367
H -0.878174945634 -0.201243469334 -2.583142235741
H 0.557057857823 0.653818126279 -2.512196569304
H -0.203336334732 0.417031194792 -3.982565727374
O -0.090334459738 -0.226369142097 0.096273714676
O -0.122007922622 -0.055188141043 2.382455180926
C 0.207845227891 0.275594857789 1.212538386115
H 0.894870276095 1.186553923778 1.153747032736
H -0.594806147293 -0.833470581463 -3.287663791607
N 2.7303691e-05 -2.0328412e-05 -3.29814431075
H -0.316568509348 0.635992187831 -4.035530247928
H -0.058436552408 0.472436239666 -2.391549054415
H 0.969862334607 -0.27512055131 -3.477833125563
O -0.155575008613 -0.21693072484 0.193071297256
O -0.085049582202 0.465746398528 2.380743564635
C 0.235528761641 -0.243544193986 1.390257733928
H 1.014055765502 -1.048601152307 1.616278215564
H 0.740253627531 -0.706472513597 -3.18007635121
N 2.535547e-05 1.177305e-05 -3.141114087915
H 0.418106810846 0.92554589471 -3.01043380511
H -0.531508235334 -0.013956769834 -4.016228429963
H -0.626678493248 -0.205138511683 -2.357721570287
O 0.476406972395 -0.220094428703 2.293309650152
O -0.770417624284 0.140901663078 0.403324971157
C 0.287780387144 0.077516636363 1.083857929211
H 1.239084627739 0.333727671386 0.505340507384
H 0.698175996259 -0.283093539687 -2.019240895196
N -2.1230514e-05 1.7574666e-05 -2.712742682833
H 0.412751536573 -0.040798378086 -3.64892404921
H -0.803577416466 -0.632967763307 -2.666103558375
H -0.307366855101 0.956902332174 -2.516634503767
O -0.674892531575 0.324798449002 0.201556006861
O 0.849139184378 -0.485131194853 1.71095096537
C -0.17055199283 0.156934822238 1.343654174178
H -0.734375744321 0.675714144613 2.191166446614
H 0.827876978875 0.387329131242 -2.450949684378
N 1.6730605e-05 -1.552754e-06 -2.91268375348
H -0.252736858458 0.589454533694 -3.71089424913
H 0.204185133414 -0.948559619486 -3.239946717061
H -0.779177485682 -0.028192431203 -2.248899272134
O 0.804146646288 0.104449371298 1.996707902093
O -1.016677241486 -0.110059836213 0.619929775595
C 0.208024285847 0.005491024542 0.891370317013
H 0.895725012632 0.023651421338 -0.020794235229
H 1.007100273555 0.069702460071 -3.098071977625
N -1.877787e-05 1.4305657e-05 -3.269625984839
H -0.245551058955 -0.973685987471 -3.469887034739
H -0.510238452726 0.317069170445 -2.44034901898
H -0.251287521884 0.586978385068 -4.070179154693
O 1.105044762614 0.33043446033 1.187561926061
O -0.972206134971 -0.477326107978 1.725598553784
C -0.130031325459 0.143778390433 1.024245153367
H -0.559747037154 0.619069585488 0.078333451872
H 0.515915318487 -0.858903724691 -2.230139274055
N 2.2243468e-05 2.228442e-05 -2.441507308585
H 0.644651761105 0.795572207389 -2.435511055251
H -0.433638842195 -0.080954555821 -3.365590099317
H -0.726788883343 0.144291331308 -1.734768164309
O -0.706491743682 0.888788728951 1.215840497849
O 0.45586197853 -1.064806029305 0.91695392242
C 0.245325196257 0.172283900127 0.80646152536
H 1.056182754109 0.741852519628 0.237771918849
H 0.977874176901 -0.302620034463 -3.583748060847
N 2.9584373e-05 6.802578e-06 -3.612260345313
H -0.610049701767 -0.797515687061 -3.411651289829
H -0.151691112659 0.730688140427 -2.911094314609
H -0.215919532348 0.369445238009 -4.542544931563
O -0.180271528237 -0.14129191299 2.584814246582
O -0.168999589341 0.089770908244 0.303714784472
C 0.341874161338 0.050430542266 1.45453455597
H 1.471924139354 0.217115731648 1.477103446663
H -0.481566517087 0.800542870183 -3.060576892517
N 1.6837057e-05 -3.6269997e-05 -2.641379429119
H -0.686779634563 -0.620087459452 -2.202825009431
H 0.507071541872 -0.512386947878 -3.368662385883
H 0.66129492838 0.331864638713 -1.933494365897
O -0.737787767656 0.01215279664 0.163680673712
O 0.595674577549 0.306924652054 2.005397146782
C 0.139107318871 -0.312319061782 1.007895587296
H 0.598858182894 -1.344690249588 0.840130472869
H 1.015536235787 -0.066846524423 -3.211034262566
N -3.5755533e-05 -3.040254e-06 -3.098244728169
H -0.258974565521 0.972084178393 -2.907247393042
H -0.460235920074 -0.31327448704 -3.957677680286
H -0.296369595372 -0.591981855629 -2.317030591384
O -0.440696459807 0.272411271641 0.203960335181
O 0.742898187583 -0.238356850271 2.100048802607
C -0.295798173333 -0.033334680206 1.417405718997
H -1.273601902092 -0.143497122315 1.997983331702
H -0.03231404553 -1.001154875822 -2.91115018855
N 1.1204837e-05 -9.371989e-06 -2.698456139874
H 0.407274546049 0.138521099916 -1.769247482327
H 0.574415066813 0.479107507639 -3.39778110654
H -0.949333904744 0.383391012197 -2.715666552981
O -0.917639818868 -0.678992452658 0.875824770567
O 0.807341584531 0.827378804523 0.986353651253
C 0.107967282323 -0.145239420453 1.375988318417
H 0.464767739724 -0.62539271411 2.349360039903
H -0.71668798898 0.712246438659 -3.146050076589
N 8.46067e-07 3.1262235e-05 -3.312431133774
H 0.878574470552 0.455029752738 -3.576187858807
H 0.141929422656 -0.547296706385 -2.458711880206
H -0.303882509102 -0.619784883807 -4.068758471344
O 0.758953603954 -0.07953940392 2.201106387661
O -0.728306550709 -0.272016783589 0.466764572831
C -0.030002295077 0.344110248812 1.315106748201
H -0.129103938091 1.481561063019 1.273987779209
H -0.077356513255 0.989245361457 -3.408239630887
N -1.9664898e-05 -1.6927541e-05 -3.155346104965
H 0.712663126385 -0.111818864786 -2.428664320525
H -0.901787564409 -0.33379522942 -2.803273824593
H 0.26639473926 -0.543602369768 -3.981231340489
O 0.093615965367 -0.992559388731 0.671782726431
O 0.107292450991 1.107884486251 1.590956443304
C -0.196653466781 -0.112876634243 1.525496793444
H -0.846683781092 -0.486083940917 2.387751487094
H -0.878122883747 0.188432297424 -1.578326786147
N -2.1226675e-05 -2.2340678e-05 -2.070260043027
H 0.303212547826 -0.957844340772 -1.872499723099
H -0.142663456227 0.111636132969 -3.078096224959
H 0.717403133332 0.65770495144 -1.752069397546
O 0.866251788221 -0.771268438406 0.817325629219
O -0.606024393213 0.984441109972 0.734750407076
C -0.254720459179 -0.208652952873 0.934845142477
H -1.096619141618 -0.898428660854 1.282296349392
H 0.762121089546 -0.054047881849 -3.637296132672
N 2.4065355e-05 -2.0632139e-05 -2.955485908337
H 0.265532682423 0.63376730492 -2.196341076898
H -0.844528460858 0.352514713064 -3.414831149796
H -0.182954626155 -0.932321940789 -2.573541857012
O 0.248046467432 0.461782060916 2.219226999476
O -0.53034491484 -0.252474831093 0.184312802704
C 0.276317581135 -0.204876510111 1.15072669821
H 1.189710060828 -0.882053645648 1.039140116812
H -0.186733457418 -0.978543279656 -2.732914387175
N -1.9229982e-05 3.2913229e-05 -2.969773906703
H 1.010907313016 0.147671776121 -3.038426225138
H -0.439378242855 0.223778184242 -3.867242514236
H -0.384890766482 0.607129408128 -2.240489369452
O -0.573565204439 -0.347841919688 2.136507761185
O 0.776099306296 0.072056801655 0.331231435445
C -0.198240863351 0.269945656238 1.10481209384
H -0.853580831841 1.162219875818 0.822531200448
H 0.276090263188 -0.600116926151 -2.744199502377
N -1.8586789e-05 3.3410135e-05 -3.526605711978
H -0.484005606615 -0.56132335955 -4.233088543877
H -0.626136662727 0.736047573872 -3.187773163716
H 0.834004622755 0.425467743936 -3.941285231084
O -0.035213574836 0.035624034147 2.57223755842
O 0.206049144704 -0.337036793999 0.322826958435
C -0.167216856512 0.295028256869 1.346590634196
H -0.719956367745 1.270249072896 1.125842694889
H 0.476433646363 0.703359806374 -4.383851497177
N -3.4402421e-05 1.0443757e-05 -3.812140142913
H -1.001063836418 0.212099052045 -3.774175099707
H 0.137133054266 -0.926407628265 -4.226245002408
H 0.387406056189 0.011059231334 -2.864344803546
O 0.066083749724 0.158431642692 0.380709744788
O 0.25200340899 -0.301279688689 2.61924301729
C -0.311350058762 0.139821430672 1.582426508514
H -1.340513149516 0.602016760126 1.762718133562
