12
Coordinates from XML
N -0.206934 -1.22743 -1.42648
C -0.21293 0.164269 -2.00018
H -0.656192 -1.89322 -2.07758
H -0.721316 -1.25579 -0.530199
H 0.760736 -1.54785 -1.25419
H -1.2592 0.425128 -2.18683
H 0.317024 0.113886 -2.95631
C 0.435112 1.23707 -1.10659
H -0.0858708 1.30999 -0.1488
H 0.389521 2.21348 -1.59525
H 1.48448 0.999778 -0.915175
Na 2.38009e-05 0.000153024 3.00186
