12
Coordinates from XML
N 0.080451 0.698689 -0.774896
C 0.52046 0.00385691 -2.03569
H 0.868282 1.21414 -0.347509
H -0.27043 0.0146914 -0.0837026
H -0.676474 1.37394 -0.974503
H 1.33923 -0.667038 -1.75806
H 0.906989 0.77876 -2.70478
C -0.581307 -0.795881 -2.75395
H -0.974931 -1.58215 -2.10515
H -0.180119 -1.26595 -3.65525
H -1.40574 -0.141761 -3.04814
Na -5.62858e-06 -8.63023e-05 3.61546
