12
Coordinates from XML
N -0.63022780351 -0.23360796084 -0.947370145196
C -0.140283918144 -0.417312910735 -2.358825483164
H -1.286686419951 -0.988801037925 -0.687034909159
H -1.121471313711 0.670279043876 -0.84545451445
H 0.15998090604 -0.249067993381 -0.280984973658
H -1.025138261516 -0.423469293656 -3.002692844399
H 0.33751958383 -1.40089298758 -2.401650406235
C 0.846668731102 0.657864917931 -2.847992305823
H 0.385269513008 1.648080641572 -2.821848367795
H 1.151780424895 0.45042605014 -3.876650492026
H 1.742798712335 0.674485216551 -2.22286358539
Na 7.6705633e-05 2.541088e-05 4.0023619328
