12
Coordinates from XML
N -0.357599 -1.16688 -2.21261
C -0.438124 0.240412 -1.68437
H -1.23243 -1.68176 -2.01613
H 0.424341 -1.6791 -1.7711
H -0.206744 -1.16559 -3.23534
H -0.62979 0.164548 -0.609621
H -1.30069 0.70996 -2.16714
C 0.818045 1.0967 -1.92558
H 1.69048 0.649371 -1.44303
H 0.676594 2.09904 -1.51381
H 1.02226 1.19256 -2.9948
Na 4.0558e-05 0.00014617 3.92248
