12
Coordinates from XML
N -0.869203 -0.885133 -1.90602
C 0.47355 -0.213443 -1.79719
H -0.840242 -1.83017 -1.48759
H -1.152 -0.979102 -2.89593
H -1.59371 -0.33628 -1.41349
H 1.19323 -0.86003 -2.30861
H 0.722711 -0.176575 -0.732235
C 0.53965 1.2046 -2.39229
H 0.302774 1.18865 -3.45894
H 1.54393 1.6183 -2.27173
H -0.166214 1.86955 -1.88859
Na 0.000111323 0.000107598 4.06919
