12
Coordinates from XML
N 0.323516 0.432742 -3.08122
C 0.36358 0.237605 -1.58913
H 1.06906 1.0814 -3.38525
H -0.58622 0.826726 -3.37426
H 0.459123 -0.467213 -3.57155
H 0.247152 1.22747 -1.13727
H 1.35865 -0.148633 -1.34786
C -0.709214 -0.714388 -1.03039
H -1.71199 -0.341499 -1.25285
H -0.609785 -0.800288 0.0545007
H -0.604799 -1.71247 -1.46287
Na -3.69654e-05 -5.14981e-05 3.92259
