12
Coordinates from XML
N -0.137626 -0.177813 -3.57677
C 0.561714 0.00571168 -2.25645
H 0.548848 -0.29969 -4.34027
H -0.723411 0.644806 -3.79784
H -0.747323 -1.01239 -3.55482
H 1.20997 0.881193 -2.36069
H 1.18399 -0.88127 -2.10283
C -0.372892 0.196271 -1.04833
H -0.997512 1.08351 -1.17775
H 0.212512 0.321269 -0.134029
H -1.02362 -0.672317 -0.920973
Na 2.16578e-05 2.20227e-05 4.70975
