12
Coordinates from XML
N 1.0853 0.592555 -1.35161
C -0.347167 0.200061 -1.10668
H 1.39113 1.30526 -0.667837
H 1.19956 0.986043 -2.30073
H 1.70919 -0.227108 -1.26416
H -0.943258 1.11468 -1.18224
H -0.40053 -0.175405 -0.0801657
C -0.903685 -0.860243 -2.07385
H -0.867942 -0.500831 -3.10518
H -1.94382 -1.08741 -1.82732
H -0.327055 -1.78609 -2.00741
Na -0.000136977 -7.15558e-05 3.02854
