12
Coordinates from XML
N -0.371577 -0.654159 -2.73209
C -0.240516 -0.252204 -1.28736
H -0.979815 -1.48489 -2.82672
H 0.553126 -0.883948 -3.13314
H -0.784043 0.112838 -3.28916
H 0.169072 -1.11584 -0.754487
H -1.25291 -0.055822 -0.921212
C 0.64783 0.9792 -1.03466
H 1.66721 0.800151 -1.38524
H 0.688697 1.2024 0.0343453
H 0.250659 1.85622 -1.55158
Na 4.3924e-05 7.87364e-05 3.4823
