12
Coordinates from XML
N -0.593654 -0.126969 -3.0133
C -0.361642 -0.189757 -1.52729
H -1.53364 -0.485394 -3.25204
H 0.106477 -0.696729 -3.51719
H -0.523614 0.846698 -3.3536
H -0.481993 -1.23665 -1.23215
H -1.152 0.404862 -1.05896
C 1.01368 0.322621 -1.06326
H 1.81795 -0.264718 -1.51302
H 1.09935 0.243108 0.0232955
H 1.15057 1.37066 -1.34071
Na 7.03586e-05 1.41122e-05 3.85587
