12
Coordinates from XML
N -1.15669 0.409613 -1.53686
C 0.173809 0.271575 -2.22729
H -1.7575 1.08898 -2.03336
H -1.03198 0.739164 -0.56497
H -1.65053 -0.498197 -1.50957
H 0.623961 1.2688 -2.24919
H -0.034476 -0.0471751 -3.25324
C 1.14788 -0.720153 -1.56622
H 1.37657 -0.414483 -0.542317
H 2.08455 -0.760585 -2.12772
H 0.720468 -1.72557 -1.54239
Na 0.000144363 -4.83591e-05 3.52216
