12
Coordinates from XML
N -1.050882552958 -0.404009613788 -2.613097359626
C 0.140870102913 -0.396422703808 -1.693495958736
H -1.620620001519 -1.254214558323 -2.466196965152
H -0.749982807188 -0.384128854891 -3.601926362954
H -1.650852920513 0.420116027636 -2.441078467342
H 0.710435842095 -1.306354718299 -1.906072736992
H -0.248163780519 -0.450874652437 -0.672101054239
C 1.058929559096 0.831371590391 -1.831536103427
H 1.465984775751 0.899065672683 -2.84337773388
H 1.894856716594 0.758474158846 -1.131412224796
H 0.510874763276 1.751442354172 -1.614241775116
Na 0.000131016947 4.6633853e-05 4.162663836464
