12
Coordinates from XML
N -0.0502148 0.518535 -2.80401
C 0.377011 0.308313 -1.37597
H 0.441374 1.32888 -3.21717
H -1.06722 0.695666 -2.85922
H 0.164323 -0.315135 -3.37646
H 0.151756 1.23464 -0.838616
H 1.46111 0.159617 -1.3894
C -0.298103 -0.878255 -0.664884
H -1.38218 -0.744708 -0.632427
H 0.066681 -0.960307 0.361986
H -0.077906 -1.81576 -1.18133
Na 9.3237e-06 -6.15139e-05 3.3489
