12
Coordinates from XML
N 1.14824 0.29045 -2.0208
C 0.069696 -0.296331 -1.14993
H 2.08399 0.0872256 -1.63079
H 1.04383 1.31656 -2.09096
H 1.10352 -0.105072 -2.9749
H 0.195602 0.138834 -0.153764
H 0.259483 -1.37265 -1.0944
C -1.36759 -0.0502611 -1.64291
H -1.5809 1.02012 -1.69671
H -2.08543 -0.507406 -0.95735
H -1.5172 -0.485533 -2.634
Na -0.000141301 -3.83385e-05 3.26876
