12
Coordinates from XML
N 0.472451921429 0.760005412414 -2.48615244621
C 0.077418598092 0.265796952188 -1.120244190947
H 0.925837375845 1.687055513798 -2.422523261503
H -0.356700709375 0.847615675794 -3.097339042907
H 1.136433464365 0.106169990405 -2.933774793359
H -0.595494876805 1.016453840153 -0.694483717496
H 0.992533300777 0.228018741917 -0.521330327475
C -0.608630385287 -1.112020635815 -1.102284177241
H -1.530980490679 -1.093318249257 -1.687963634897
H -0.860737734008 -1.395015747591 -0.077287911379
H 0.051062044056 -1.878828880155 -1.515711449903
Na -5.7739457e-05 -9.1702986e-05 3.242132086734
