12
Coordinates from XML
N -0.624086029688 -0.236264612755 -2.950834355023
C 0.168735662527 -0.506865248084 -1.700151441166
H -0.843297277913 -1.118809651464 -3.442860388075
H -0.091817657578 0.369935929134 -3.597309398984
H -1.515006853376 0.236536652848 -2.723992861324
H 1.076801806373 -1.033806514856 -2.008889305175
H -0.437121565065 -1.17531864979 -1.080742854187
C 0.548769250617 0.745188833593 -0.889409728918
H 1.162820784749 1.422678889647 -1.487780734797
H 1.119391721554 0.461401851448 -0.001650393272
H -0.345500151009 1.28187650376 -0.563281415662
Na 7.8514066e-05 2.4995136e-05 3.802501715821
