12
Coordinates from XML
N 0.0684327 -1.06882 -2.65582
C 0.156701 0.408725 -2.38186
H 0.338001 -1.27637 -3.63218
H -0.895615 -1.41136 -2.5075
H 0.698836 -1.59549 -2.02816
H -0.506369 0.903565 -3.09813
H 1.18917 0.706958 -2.5883
C -0.225184 0.82703 -0.950581
H -1.25731 0.546173 -0.72713
H -0.133737 1.91004 -0.836572
H 0.431781 0.350078 -0.219127
Na -7.16227e-06 0.00013545 4.0426
