12
Coordinates from XML
N -0.630257648186 0.586508689625 -1.182217720474
C 0.059520991342 -0.538083125424 -1.907129693389
H -1.006813865529 0.260800356731 -0.276045313609
H -1.415512514738 0.956389731863 -1.743717060233
H 0.028682279601 1.361484558445 -0.9979662933
H -0.682470731367 -1.331496112999 -2.039471687776
H 0.853081940948 -0.899974742815 -1.24617931354
C 0.658551605577 -0.158342258089 -3.273265218285
H -0.120084501647 0.19743724246 -3.952416661498
H 1.138771215731 -1.02740121502 -3.729759850236
H 1.409611728627 0.627575553363 -3.162121258008
Na 7.8363779e-05 -7.6927258e-05 4.175826149383
