12
Coordinates from XML
N -1.23271 -0.159608 -1.58893
C 0.143314 0.360395 -1.90855
H -1.93167 0.228712 -2.24444
H -1.5095 0.104361 -0.628503
H -1.26011 -1.19049 -1.66151
H 0.0919333 1.45166 -1.84482
H 0.356522 0.0742416 -2.94307
C 1.26277 -0.158367 -0.988191
H 1.07346 0.125199 0.0500052
H 2.22461 0.265116 -1.28783
H 1.33691 -1.24718 -1.04395
Na 0.0001535 2.27101e-05 2.98854
