12
Coordinates from XML
N 0.00316533 -1.09935 -0.98985
C -0.545435 0.108895 -1.7006
H -0.758637 -1.74926 -0.732342
H 0.496884 -0.822079 -0.124934
H 0.670364 -1.60761 -1.59421
H -1.2636 0.577166 -1.02051
H -1.07862 -0.258769 -2.5827
C 0.51002 1.144 -2.12949
H 1.0484 1.53117 -1.26096
H 0.0301448 1.98484 -2.63641
H 1.23288 0.698268 -2.81718
Na -4.90929e-06 0.000136741 3.1619
