12
Coordinates from XML
N -0.657402 1.0489 -1.86008
C 0.337409 -0.0379478 -2.16847
H -0.664616 1.76129 -2.60941
H -0.421322 1.51907 -0.970175
H -1.61113 0.658824 -1.77657
H 1.3128 0.446692 -2.27481
H 0.0469037 -0.467696 -3.13205
C 0.427708 -1.15357 -1.11177
H 0.726014 -0.746183 -0.142675
H 1.16877 -1.89866 -1.41165
H -0.53528 -1.65704 -0.996513
Na 8.4027e-05 -0.000129915 3.42882
