12
Coordinates from XML
N -1.0173 0.21026 -2.45398
C -0.161014 -0.364231 -1.35729
H -1.98543 -0.146464 -2.38676
H -0.642734 -0.0461283 -3.38278
H -1.04845 1.24169 -2.39139
H -0.198961 -1.45274 -1.46347
H -0.630692 -0.0827727 -0.409793
C 1.30512 0.104547 -1.36609
H 1.79583 -0.175319 -2.30149
H 1.85401 -0.356659 -0.541301
H 1.36572 1.18964 -1.25198
Na 0.000124366 -2.90004e-05 3.53563
