12
Coordinates from XML
N -0.92471 0.226432 -2.60285
C -0.181796 0.193889 -1.29403
H -1.8543 0.663417 -2.48482
H -1.06217 -0.730412 -2.96929
H -0.3997 0.770373 -3.308
H -0.805172 -0.366015 -0.590126
H -0.100868 1.22995 -0.951108
C 1.21968 -0.439351 -1.35921
H 1.16021 -1.47875 -1.6912
H 1.68795 -0.422542 -0.371942
H 1.86187 0.111136 -2.05107
Na 0.00011275 -2.63764e-05 3.60235
