12
Coordinates from XML
N -0.47316169145 0.257494301852 -0.992918736581
C -0.348062912489 0.249231184769 -2.493012302629
H -1.306189627321 0.794517756254 -0.698471455425
H 0.359492097039 0.689900539014 -0.558832093181
H -0.564617788855 -0.705503236681 -0.628214010636
H -0.28838304354 1.294534080489 -2.811368170083
H -1.271030167955 -0.189555348251 -2.884366045269
C 0.864277696923 -0.526626600123 -3.038578082248
H 1.798047628228 -0.097980394262 -2.66650810376
H 0.880000430485 -0.483501060192 -4.130436441677
H 0.819205805819 -1.576550085091 -2.739011236544
Na 5.5583848e-05 -2.9747791e-05 4.242502316064
