12
Coordinates from XML
N 1.31137 0.103608 0.158751
C 0.168367 0.505608 -0.724249
H 1.94537 0.904608 0.315751
H 1.85237 -0.661392 -0.277249
H 0.962367 -0.222392 1.07475
H 0.617367 0.865608 -1.65425
H -0.333633 1.33161 -0.215249
C -0.836633 -0.618392 -1.02325
H -0.340633 -1.45139 -1.52725
H -1.63563 -0.249392 -1.67125
H -1.28463 -0.988392 -0.0982486
Li -1.73046 0.0537944 3.25423
