12
Coordinates from XML
N 1.31444 0.103292 0.156265
C 0.17144 0.505292 -0.726735
H 1.94844 0.904292 0.313265
H 1.85544 -0.661708 -0.279735
H 0.96544 -0.222708 1.07226
H 0.62044 0.865292 -1.65674
H -0.33056 1.33129 -0.217735
C -0.83356 -0.618708 -1.02574
H -0.33756 -1.45171 -1.52974
H -1.63256 -0.249708 -1.67374
H -1.28156 -0.988708 -0.100735
Li -1.75063 0.0558635 3.27055
