12
Coordinates from XML
N 1.32058 0.102662 0.151291
C 0.177585 0.504662 -0.731709
H 1.95458 0.903662 0.308291
H 1.86158 -0.662338 -0.284709
H 0.971585 -0.223338 1.06729
H 0.626585 0.864662 -1.66171
H -0.324415 1.33066 -0.222709
C -0.827415 -0.619338 -1.03071
H -0.331415 -1.45234 -1.53471
H -1.62642 -0.250338 -1.67871
H -1.27542 -0.989338 -0.105709
Li -1.79097 0.0600015 3.30321
