12
Coordinates from XML
N 1.3298 0.101717 0.143831
C 0.186802 0.503717 -0.739169
H 1.9638 0.902717 0.300831
H 1.8708 -0.663283 -0.292169
H 0.980802 -0.224283 1.05983
H 0.635802 0.863717 -1.66917
H -0.315198 1.32972 -0.230169
C -0.818198 -0.620283 -1.03817
H -0.322198 -1.45328 -1.54217
H -1.6172 -0.251283 -1.68617
H -1.2662 -0.990283 -0.113169
Li -1.85149 0.0662086 3.35219
