12
Coordinates from XML
N 1.33595 0.101087 0.138858
C 0.192947 0.503087 -0.744142
H 1.96995 0.902087 0.295858
H 1.87695 -0.663913 -0.297142
H 0.986947 -0.224913 1.05486
H 0.641947 0.863087 -1.67414
H -0.309053 1.32909 -0.235142
C -0.812053 -0.620913 -1.04314
H -0.316053 -1.45391 -1.54714
H -1.61105 -0.251913 -1.69114
H -1.26005 -0.990913 -0.118142
Li -1.89184 0.0703466 3.38484
