12
Coordinates from XML
N 1.339019198303 0.100771435269 0.136370918848
C 0.196019198303 0.502771435269 -0.746629081152
H 1.973019198303 0.901771435269 0.293370918848
H 1.880019198303 -0.664228564731 -0.299629081152
H 0.990019198303 -0.225228564731 1.052370918848
H 0.645019198303 0.862771435269 -1.676629081152
H -0.305980801697 1.328771435269 -0.237629081152
C -0.808980801697 -0.621228564731 -1.045629081152
H -0.312980801697 -1.454228564731 -1.549629081152
H -1.607980801697 -0.252228564731 -1.693629081152
H -1.256980801697 -0.991228564731 -0.120629081152
Li -1.912011868367 0.072415647235 3.401171982841
