12
Coordinates from XML
N 1.33902 0.100771 0.136371
C 0.196019 0.502771 -0.746629
H 1.97302 0.901771 0.293371
H 1.88002 -0.664229 -0.299629
H 0.990019 -0.225229 1.05237
H 0.645019 0.862771 -1.67663
H -0.305981 1.32877 -0.237629
C -0.808981 -0.621229 -1.04563
H -0.312981 -1.45423 -1.54963
H -1.60798 -0.252229 -1.69363
H -1.25698 -0.991229 -0.120629
Li -1.91201 0.0724156 3.40117
