12
Coordinates from XML
N 1.345164062686 0.100141192768 0.13139748346
C 0.202164062686 0.502141192768 -0.75160251654
H 1.979164062686 0.901141192768 0.28839748346
H 1.886164062686 -0.664858807232 -0.30460251654
H 0.996164062686 -0.225858807232 1.04739748346
H 0.651164062686 0.862141192768 -1.68160251654
H -0.299835937314 1.328141192768 -0.24260251654
C -0.802835937314 -0.621858807232 -1.05060251654
H -0.306835937314 -1.454858807232 -1.55460251654
H -1.601835937314 -0.252858807232 -1.69860251654
H -1.250835937314 -0.991858807232 -0.12560251654
Li -1.95235781797 0.076553693348 3.433826564125
