12
Coordinates from XML
N 1.34348 0.100314 0.132759
C 0.200482 0.502314 -0.750241
H 1.97748 0.901314 0.289759
H 1.88448 -0.664686 -0.303241
H 0.994482 -0.225686 1.04876
H 0.649482 0.862314 -1.68024
H -0.301518 1.32831 -0.241241
C -0.804518 -0.621686 -1.04924
H -0.308518 -1.45469 -1.55324
H -1.60352 -0.252686 -1.69724
H -1.25252 -0.991686 -0.124241
Li -1.94131 0.0754207 3.42489
