12
Coordinates from XML
N 1.356429647389 0.098985748183 0.122279518584
C 0.213429647389 0.500985748183 -0.760720481416
H 1.990429647389 0.899985748183 0.279279518584
H 1.897429647389 -0.666014251817 -0.313720481416
H 1.007429647389 -0.227014251817 1.038279518584
H 0.662429647389 0.860985748183 -1.690720481416
H -0.288570352611 1.326985748183 -0.251720481416
C -0.791570352611 -0.623014251817 -1.059720481416
H -0.295570352611 -1.456014251817 -1.563720481416
H -1.590570352611 -0.254014251817 -1.707720481416
H -1.239570352611 -0.993014251817 -0.134720481416
Li -2.026325392242 0.084140111222 3.493693296479
