12
Coordinates from XML
N -0.71841772197 -0.352442459251 -1.144051970055
C 0.211335357893 -0.518990500463 -2.368357107223
H -0.983368433597 -1.260047004648 -0.754381191307
H -1.571888720727 0.145695107097 -1.40835345664
H -0.251862634229 0.188259237946 -0.41167356012
H -0.341143268298 -1.128412981821 -3.08006794213
H 1.071339538697 -1.0826973657 -2.013629073781
C 0.597522600378 0.836153455981 -2.937959547561
H -0.269277510735 1.397948430612 -3.289437792662
H 1.251055347253 0.683510552203 -3.796525655799
H 1.148326201632 1.444101639362 -2.218585786396
Na 0.013056432391 0.03209801012 4.210634265121
