12
Coordinates from XML
N -0.718418 -0.352442 -1.14405
C 0.211335 -0.518991 -2.36836
H -0.983368 -1.26005 -0.754381
H -1.57189 0.145695 -1.40835
H -0.251863 0.188259 -0.411674
H -0.341143 -1.12841 -3.08007
H 1.07134 -1.0827 -2.01363
C 0.597523 0.836153 -2.93796
H -0.269278 1.39795 -3.28944
H 1.25106 0.683511 -3.79653
H 1.14833 1.4441 -2.21859
Na 0.0130564 0.032098 4.21063
