22
Coordinates from XML
N 0.405250745189 -0.123043254561 -3.992683299071
C -0.492206965787 0.28430832528 -2.854863876707
H 0.011528902206 0.185766925422 -4.89747516298
H 0.514744674761 -1.150589074088 -4.022337431348
H 1.343083216871 0.299153695743 -3.888002812288
H -1.470202641917 -0.168151317598 -3.045586234964
H -0.588687542315 1.373306999633 -2.903168262734
C 0.003983160866 -0.128578269863 -1.457478069829
H 0.098400545801 -1.214831711073 -1.385098914116
H -0.70177364359 0.204506945682 -0.692479203327
H 0.976805806793 0.320697310186 -1.243285055373
N 0.096230088191 1.159945814461 2.372974367408
C -0.17495651875 0.055550260503 3.359263866041
H -0.078465576378 2.084309873826 2.801998194758
H -0.514752262991 1.068283839347 1.544109270868
H 1.079382754256 1.132674216326 2.054532678482
H -1.216676420976 0.163450182241 3.676671397608
H 0.478835117984 0.232347137991 4.218833111621
C 0.055489843105 -1.367386074309 2.819343745209
H -0.595529229322 -1.567797374955 1.964879350861
H -0.162438912 -2.105559907773 3.595145358308
H 1.093661303903 -1.499101896451 2.504761395287
