22
Coordinates from XML
N -0.071056128186 -1.208822116723 -2.697266703639
C 0.555762462408 0.122171907678 -2.37859437664
H 0.655894387709 -1.919944904834 -2.8840185753
H -0.675233693722 -1.13782789121 -3.533118358328
H -0.649960849782 -1.539062694892 -1.90698289516
H 1.175667112003 0.394030351437 -3.238467332877
H 1.202022188313 -0.033268541345 -1.509257525022
C -0.443090546074 1.255521228418 -2.083333373244
H -1.092884515176 1.433295064533 -2.943719440199
H 0.091980702699 2.182401445212 -1.862305058201
H -1.066844534709 1.007478466099 -1.221059145157
N 1.062314183923 -0.106951382176 3.043990243231
C -0.415442807741 -0.148299394592 2.76022395567
H 1.255598827961 -0.393098080176 4.018561968402
H 1.434222158453 0.84803476689 2.908326640988
H 1.574007021328 -0.745914779469 2.412615369508
H -0.894916343998 0.521410722502 3.480754160444
H -0.745461064067 -1.173621061095 2.953519994921
C -0.813188227436 0.261285680896 1.330746525785
H -0.500439230314 1.286962931694 1.120332255131
H -1.897687504687 0.203305315889 1.209250482575
H -0.351317248223 -0.401627749113 0.594993797232
