22
Coordinates from XML
N -0.845090913406 -0.850370572293 -3.012634441808
C -0.231810961486 0.281593609941 -2.232542472093
H -1.786479613767 -1.076574840101 -2.649801314933
H -0.260399953735 -1.700232117323 -2.944880952157
H -0.936007214622 -0.599246896051 -4.011338171401
H -0.195784949772 -0.037938551302 -1.18651588863
H -0.914410113831 1.132334471143 -2.321189594996
C 1.176185264119 0.699135867101 -2.693597965138
H 1.876476809428 -0.134941467757 -2.604117943107
H 1.546156752663 1.523064917773 -2.078355158821
H 1.160591705157 1.03075332768 -3.734702088393
N 0.871931240093 -0.709448113483 3.209552449938
C -0.496379600879 -0.25975288661 2.771947221556
H 0.812739469111 -1.591346930503 3.746003514516
H 1.316765510436 0.004503967167 3.810479731613
H 1.483227133884 -0.8698787505 2.391434270797
H -1.095894540987 -0.141172910597 3.679741754904
H -0.918074398059 -1.071110438221 2.170754781837
C -0.520917042541 1.049218382663 1.962404631153
H -0.111893878459 1.875417119938 2.549086504974
H -1.547171487305 1.302591523647 1.685158243207
H 0.065503688447 0.949036468267 1.045788351025
