22
Coordinates from XML
N 0.96381229315 0.50222174732 -1.948707413762
C -0.021369525649 0.267483002503 -3.062400906645
H 1.637160151604 1.243320490278 -2.206397632047
H 1.495933241597 -0.359975116906 -1.743323473438
H 0.476696060031 0.794965837215 -1.085135362707
H 0.560987418855 -0.005596245323 -3.947758688842
H -0.52253385922 1.222616482474 -3.247101405545
C -1.072488946728 -0.820970868966 -2.779941692218
H -0.592441118251 -1.786307379895 -2.60167384222
H -1.745408205637 -0.926930966059 -3.634467187691
H -1.671802230178 -0.562793413383 -1.903426384645
N -0.419439864068 -1.165758420157 2.418881057233
C -0.385048483364 0.265049051666 2.885363534942
H -1.264849658943 -1.645124714574 2.771753794075
H 0.409504797793 -1.681383849921 2.759027883106
H -0.428722179556 -1.213664661669 1.386235501031
H -0.409727027602 0.241982110558 3.979177584304
H -1.300985629648 0.73868178275 2.518906022805
C 0.8378778176 1.071971390301 2.413458165909
H 1.764039741184 0.620225225236 2.777119295193
H 0.784811940406 2.095135787966 2.793695357184
H 0.876259480757 1.11487143471 1.322221468935
