8
Coordinates from XML
C -0.049688754112 -1.447561593678 -2.322054478926
C 0.005623030108 0.114063209141 -2.46527222852
O 0.233428590134 0.784485835626 -1.385708375948
O -0.187613507453 0.560463459961 -3.663747323165
H 0.137183977379 -1.755788985933 -1.286119485998
H -1.038016332199 -1.806310293833 -2.646081381413
H 0.698556360171 -1.900578242732 -2.989174412049
Br -2.038017e-06 -6.2664598e-05 1.839738050134
