8
Coordinates from XML
C -1.347644891859 -0.520613207781 -3.044909982039
C 0.105541840621 0.043190439459 -2.864309566885
O 0.646559466608 0.586514497516 -3.903019766782
O 0.605680522816 -0.103183312399 -1.680505478699
H -1.713563961464 -0.349365343606 -4.064647328712
H -1.34816164397 -1.5984002473 -2.823866331561
H -2.018151852449 -0.036706518846 -2.319376679741
Br -5.8382331e-05 -2.2392148e-05 2.147771882912
