8
Coordinates from XML
C 0.300248993153 1.382849017668 -2.522271972907
C -0.021792989813 -0.110237003918 -2.881751924229
O 0.305913941975 -0.998363388201 -2.003879680984
O -0.584869674557 -0.286352526248 -4.032788007834
H 0.760853826994 1.459363094391 -1.529762206814
H 0.977947773181 1.800301558788 -3.281839747675
H -0.628127815074 1.972255234705 -2.551608874665
Br 1.313056e-05 5.9775301e-05 2.139237905414
