8
Coordinates from XML
C -0.158815942572 0.72937858493 -2.046699339347
C 0.006397824139 -0.057873490748 -3.393985991355
O -1.065854637806 -0.572039253238 -3.896706798165
O 1.214003504337 -0.105761704868 -3.854801937224
H -1.206839831934 0.742813364121 -1.723353879012
H 0.464943113686 0.257825522181 -1.27271754773
H 0.206054421561 1.758588065329 -2.179895823441
Br -7.29577e-06 3.1543142e-05 2.464438806483
