8
Coordinates from XML
C 0.485465349345 -1.355999268223 -2.723047829935
C -0.041513874951 0.104443464815 -2.950298050455
O -0.786030732362 0.293974200951 -3.98788791748
O 0.335440875971 0.966155086244 -2.062427399335
H 0.116027280785 -2.034547265224 -3.501620229876
H 1.585659028027 -1.348606234915 -2.725210571511
H 0.16181918708 -1.709342677498 -1.73282288715
Br 2.0794942e-05 -5.8865825e-05 2.190572824659
