8
Coordinates from XML
C 1.071727772138 -0.561404496238 -1.766472238581
C -0.084681937335 0.048633341233 -2.634120302453
O -0.701054351125 1.068925564055 -2.138228368026
O -0.294803686994 -0.547844201914 -3.762401954661
H 1.204427553119 0.000920539307 -0.83412671507
H 0.838301395886 -1.612235781069 -1.538983331828
H 2.006043645427 -0.551266237671 -2.347070985715
Br 4.6375848e-05 -2.4003142e-05 1.925335858909
