8
Coordinates from XML
C -1.338296846574 0.569932885309 -2.575195812026
C 0.106083438208 -0.041838237474 -2.616962165873
O 0.795359207919 0.179305541825 -3.685987107223
O 0.447931226682 -0.709280588071 -1.563104066312
H -1.554953841594 1.133344010282 -3.491009386641
H -2.071806007953 -0.240952527611 -2.453070375316
H -1.428874271195 1.228816353578 -1.698946905647
Br -5.7893106e-05 2.4879962e-05 1.950972348959
