8
Coordinates from XML
C -1.232245558771 0.570922269937 -3.245595121163
C 0.093861783352 -0.050160473043 -2.681734956234
O 0.016485797219 -1.253432495715 -2.220248900879
O 1.128654877911 0.723529685895 -2.741424865617
H -2.062365073368 -0.142802540567 -3.177879989617
H -1.475482168531 1.481785430506 -2.678453411011
H -1.077631034964 0.868430183461 -4.293319908957
Br -5.3567752e-05 2.4360437e-05 2.03651760485
