8
Coordinates from XML
C -1.198787169618 0.301561057829 -3.353590812998
C 0.091705874274 -0.020715939266 -2.521119802775
O 0.172752669156 0.51861453667 -1.350917240042
O 0.941390845568 -0.798917773305 -3.108821641229
H -1.879632022711 0.951552884986 -2.79052086767
H -0.909421921347 0.790426028219 -4.29580324065
H -1.707306430995 -0.638376824666 -3.614490752436
Br -5.2083052e-05 1.3268201e-05 1.933824555153
