8
Coordinates from XML
C -1.404456171286 0.293749793303 -3.445359709458
C 0.111621587849 -0.02061927686 -3.190559674075
O 0.921182355864 0.211957751932 -4.168996831808
O 0.383592801156 -0.485298603064 -2.014523586704
H -1.559894497074 0.69731736931 -4.45335722491
H -1.992028284253 -0.627546676288 -3.31707373131
H -1.757490124924 1.015219649886 -2.693700136141
Br -6.0733662e-05 1.2886121e-05 2.395918778202
