8
Coordinates from XML
C 0.154169583796 0.890998092397 -2.018402900614
C -0.006023288135 -0.070147938039 -3.248353832159
O 1.073384435988 -0.370986545395 -3.88959877794
O -1.217211570254 -0.456694810003 -3.486178466919
H 1.205151228106 1.165551439817 -1.866268435651
H -0.448114768301 1.796466757278 -2.185332589832
H -0.238903633819 0.397142423445 -1.117434607955
Br 7.095342e-06 3.8579105e-05 2.361751365397
