8
Coordinates from XML
C -0.896871670128 0.547994835454 -3.615174604389
C 0.068094836196 -0.048572271885 -2.531112765671
O -0.090785186838 -1.2967178803 -2.241786545743
O 0.924181168304 0.788114749762 -2.041187143099
H -1.583250398161 -0.217681741766 -3.996895017109
H -1.470021894335 1.376713342868 -3.173348936319
H -0.302168541673 0.964501641286 -4.441609181497
Br -3.9006065e-05 2.3352328e-05 1.950927602555
