272
Coordinates from XML
C 1.234161980077 0.769122395093 -2.297862684179
C -0.096647188193 -0.060241073149 -2.355706761187
O -0.613240372021 -0.240874428104 -3.525032659542
O -0.5335876837 -0.473588662551 -1.210637824577
H 1.553719946094 1.073190086468 -3.302109863962
H 1.079470657345 1.658978393381 -1.66960130387
H 2.019422459154 0.163741307045 -1.821392791348
Br 5.3465675e-05 3.3324273e-05 1.754164403748
C -0.049688754112 -1.447561593678 -2.322054478926
C 0.005623030108 0.114063209141 -2.46527222852
O 0.233428590134 0.784485835626 -1.385708375948
O -0.187613507453 0.560463459961 -3.663747323165
H 0.137183977379 -1.755788985933 -1.286119485998
H -1.038016332199 -1.806310293833 -2.646081381413
H 0.698556360171 -1.900578242732 -2.989174412049
Br -2.038017e-06 -6.2664598e-05 1.839738050134
C 1.005917910277 0.966178814492 -1.988765134339
C -0.074867374882 -0.080318383027 -2.434847553874
O 0.327383339163 -1.29844724925 -2.580368725484
O -1.262347705302 0.401183774708 -2.610922063182
H 1.982253247948 0.487846905681 -1.843662597788
H 1.08544029318 1.753230411519 -2.75342940004
H 0.681576514643 1.448104079744 -1.054583921549
Br 4.3850001e-05 4.1538238e-05 1.796965191702
C -1.347644891859 -0.520613207781 -3.044909982039
C 0.105541840621 0.043190439459 -2.864309566885
O 0.646559466608 0.586514497516 -3.903019766782
O 0.605680522816 -0.103183312399 -1.680505478699
H -1.713563961464 -0.349365343606 -4.064647328712
H -1.34816164397 -1.5984002473 -2.823866331561
H -2.018151852449 -0.036706518846 -2.319376679741
Br -5.8382331e-05 -2.2392148e-05 2.147771882912
C -0.18032338204 1.318773598497 -2.387563531908
C 0.008403593962 -0.103320618476 -3.023388121424
O -1.041293159532 -0.646842494584 -3.542561193683
O 1.209320854159 -0.578576996588 -2.953493879245
H -1.215358490038 1.665309143775 -2.495740672541
H 0.090593714023 1.27806361722 -1.321996973926
H 0.505705461013 2.02825993468 -2.873503246078
Br -8.207196e-06 5.7128578e-05 2.224817089453
C 0.300248993153 1.382849017668 -2.522271972907
C -0.021792989813 -0.110237003918 -2.881751924229
O 0.305913941975 -0.998363388201 -2.003879680984
O -0.584869674557 -0.286352526248 -4.032788007834
H 0.760853826994 1.459363094391 -1.529762206814
H 0.977947773181 1.800301558788 -3.281839747675
H -0.628127815074 1.972255234705 -2.551608874665
Br 1.313056e-05 5.9775301e-05 2.139237905414
C 1.449879855642 0.071858756037 -3.416946056732
C -0.113267204683 -0.007278006671 -3.304913103389
O -0.589582786271 -0.461671516512 -2.194296163119
O -0.757595792956 0.394870820921 -4.351848195296
H 1.929700251475 -0.268942098582 -2.491357585586
H 1.784442608244 -0.548709498119 -4.261604728333
H 1.746820809977 1.108640664477 -3.633863516859
Br 6.2832724e-05 2.995039e-06 2.481494657071
C 0.616663469354 -1.306646250787 -2.048474424932
C -0.045889699582 0.104374522707 -2.228158640027
O 0.082062899608 0.931021195975 -1.244744488716
O -0.655424154413 0.282794444077 -3.354919562272
H 1.127028041099 -1.382692908091 -1.080573726252
H -0.158935482273 -2.083332479411 -2.123908061363
H 1.333356485576 -1.478444345252 -2.865163090076
Br 2.6877431e-05 -5.6468774e-05 1.660044732091
C 0.418370388551 1.231761712417 -3.111986003028
C -0.02916657428 -0.099835689408 -2.412842406616
O 0.403970678181 -1.198689344577 -2.934122320016
O -0.793188885651 0.054497642461 -1.380656751674
H 1.074287705898 1.027498214728 -3.967050766073
H -0.473204211596 1.781872734535 -3.448078342603
H 0.940470356014 1.867971959628 -2.382059989066
Br 1.83692e-05 5.3131375e-05 1.839703174233
C -0.405600647321 -0.17152110038 -1.496913473126
C 0.026215426806 0.011864488415 -2.994293633939
O -0.835655354392 -0.337172616533 -3.889934096931
O 1.213102188986 0.496501576229 -3.165707760381
H -1.424838508624 -0.570549539785 -1.42608029364
H 0.298348978471 -0.854067073908 -0.997842953687
H -0.345185039591 0.7975450075 -0.979801615362
Br -1.795243e-05 -7.543259e-06 2.156396582512
C -1.219330452791 -0.784883423414 -3.014261278284
C 0.095684358629 0.062455342306 -2.891803922826
O 0.646301286852 0.435813090117 -3.998259965137
O 0.486730485109 0.293205161488 -1.680691399656
H -1.499861771699 -0.92863839919 -4.064843754216
H -1.067270583113 -1.761601131185 -2.531161101961
H -2.031707272703 -0.275324102022 -2.475246398163
Br -5.2809374e-05 -3.3939562e-05 2.164887957671
C -0.158815942572 0.72937858493 -2.046699339347
C 0.006397824139 -0.057873490748 -3.393985991355
O -1.065854637806 -0.572039253238 -3.896706798165
O 1.214003504337 -0.105761704868 -3.854801937224
H -1.206839831934 0.742813364121 -1.723353879012
H 0.464943113686 0.257825522181 -1.27271754773
H 0.206054421561 1.758588065329 -2.179895823441
Br -7.29577e-06 3.1543142e-05 2.464438806483
C 0.536966941575 -1.350688257693 -3.269754071301
C -0.041539640267 0.105902491388 -3.192836800747
O -0.254682451353 0.58011628838 -2.011095966263
O -0.244471979473 0.674792506921 -4.336575718419
H 0.698089055009 -1.764864375518 -2.266965628672
H -0.162467722631 -1.98919680847 -3.829739290835
H 1.485529657597 -1.336219590213 -3.826677110845
Br 2.3294025e-05 -5.8509281e-05 2.39592717813
C 0.485465349345 -1.355999268223 -2.723047829935
C -0.041513874951 0.104443464815 -2.950298050455
O -0.786030732362 0.293974200951 -3.98788791748
O 0.335440875971 0.966155086244 -2.062427399335
H 0.116027280785 -2.034547265224 -3.501620229876
H 1.585659028027 -1.348606234915 -2.725210571511
H 0.16181918708 -1.709342677498 -1.73282288715
Br 2.0794942e-05 -5.8865825e-05 2.190572824659
C 1.311837963736 0.255544189109 -3.081179831213
C -0.100636167743 -0.019159391772 -2.455322409267
O -0.160291571995 -0.070733510144 -1.166679197932
O -1.058760627264 -0.166978623399 -3.311536804552
H 2.071081879569 0.385396357808 -2.300299595044
H 1.58819143743 -0.585190938838 -3.734845393423
H 1.261935708983 1.156994198834 -3.709703088918
Br 5.6978479e-05 1.1125125e-05 1.873934700332
C 1.071727772138 -0.561404496238 -1.766472238581
C -0.084681937335 0.048633341233 -2.634120302453
O -0.701054351125 1.068925564055 -2.138228368026
O -0.294803686994 -0.547844201914 -3.762401954661
H 1.204427553119 0.000920539307 -0.83412671507
H 0.838301395886 -1.612235781069 -1.538983331828
H 2.006043645427 -0.551266237671 -2.347070985715
Br 4.6375848e-05 -2.4003142e-05 1.925335858909
C -1.338296846574 0.569932885309 -2.575195812026
C 0.106083438208 -0.041838237474 -2.616962165873
O 0.795359207919 0.179305541825 -3.685987107223
O 0.447931226682 -0.709280588071 -1.563104066312
H -1.554953841594 1.133344010282 -3.491009386641
H -2.071806007953 -0.240952527611 -2.453070375316
H -1.428874271195 1.228816353578 -1.698946905647
Br -5.7893106e-05 2.4879962e-05 1.950972348959
C 0.1470717295 -0.558555865502 -1.857190331505
C -0.006502957202 0.040861043404 -3.299187878997
O 0.952048420404 -0.201255130823 -4.129476381705
O -1.089066311971 0.720666487747 -3.496360992322
H 1.076748897683 -1.133362475279 -1.76562299562
H 0.13991800839 0.259906996992 -1.121967350364
H -0.716347988125 -1.203966015612 -1.637882397564
Br 6.719348e-06 -2.4393028e-05 2.387430433405
C -0.469696050801 0.363270530892 -1.921525566527
C 0.041576913182 -0.024682116481 -3.353424809403
O 1.050720615702 0.64163270272 -3.805612306397
O -0.614864052847 -0.979377637979 -3.928401169976
H 0.139954584414 1.165835307925 -1.488740707348
H -1.519678560234 0.685412473294 -1.986692765602
H -0.438526951225 -0.523757757004 -1.271638542313
Br -2.0021439e-05 1.6000759e-05 2.430214745668
C -1.232245558771 0.570922269937 -3.245595121163
C 0.093861783352 -0.050160473043 -2.681734956234
O 0.016485797219 -1.253432495715 -2.220248900879
O 1.128654877911 0.723529685895 -2.741424865617
H -2.062365073368 -0.142802540567 -3.177879989617
H -1.475482168531 1.481785430506 -2.678453411011
H -1.077631034964 0.868430183461 -4.293319908957
Br -5.3567752e-05 2.4360437e-05 2.03651760485
C -1.434366444313 -0.137436667612 -2.761996246103
C 0.111536345311 0.015313808145 -2.98356925719
O 0.483477414535 0.842260668216 -3.902611538429
O 0.849333414413 -0.715123854338 -2.212159896399
H -1.99663821044 0.519716216816 -3.436597906484
H -1.723279712006 -1.184986928399 -2.934196826475
H -1.677175452517 0.102055149683 -1.716132346964
Br -6.2196197e-05 -5.644158e-06 2.216243346245
C 1.169583078928 -0.7739126481 -2.367138419276
C -0.095386652236 0.056199751383 -1.951196445543
O -1.24263053712 -0.439854259073 -2.274587648839
O 0.156265018613 1.159436015265 -1.324700413248
H 0.882746216954 -1.700858797265 -2.878589593725
H 1.802550650829 -0.16307246872 -3.027980150088
H 1.761892136297 -1.008019824698 -1.470194914386
Br 5.0408975e-05 -3.3829792e-05 1.480325298965
C -1.198787169618 0.301561057829 -3.353590812998
C 0.091705874274 -0.020715939266 -2.521119802775
O 0.172752669156 0.51861453667 -1.350917240042
O 0.941390845568 -0.798917773305 -3.108821641229
H -1.879632022711 0.951552884986 -2.79052086767
H -0.909421921347 0.790426028219 -4.29580324065
H -1.707306430995 -0.638376824666 -3.614490752436
Br -5.2083052e-05 1.3268201e-05 1.933824555153
C 0.778820919078 -1.14965059229 -2.83750429317
C -0.066119284176 0.087720034159 -2.371421974498
O -1.294011836274 0.129988246886 -2.768049333308
O 0.570894439301 0.938521467583 -1.634328674534
H 0.173861525004 -1.834965004828 -3.44368507493
H 1.643384133221 -0.799050595832 -3.420681415697
H 1.170521360758 -1.675871308375 -1.954437838995
Br 3.3389116e-05 -4.9963578e-05 1.796928212642
C 1.431515863777 0.011278218725 -2.268846725244
C -0.111524961234 -0.005340379407 -2.553436915865
O -0.512138056218 -0.765905526335 -3.516696895552
O -0.817987540414 0.755984116026 -1.782559667051
H 1.965234060024 -0.665958834899 -2.946771288067
H 1.811220405788 1.036780695842 -2.389902890754
H 1.611838930729 -0.284077209336 -1.224628068459
Br 6.2058516e-05 1.85099e-07 1.891083988168
C 0.148334125458 -1.055838095944 -2.076697784781
C -0.012814252554 0.078645569012 -3.148714928423
O -0.174124713547 -0.302257361321 -4.371707927545
O 0.036605868765 1.283662531158 -2.681330858929
H 0.081312471652 -2.04821316719 -2.539068489494
H 1.120066031305 -0.943126216131 -1.573191478652
H -0.632963673119 -0.945405165152 -1.310197844615
Br 6.348484e-06 -4.6020662e-05 2.293289493677
C -1.404456171286 0.293749793303 -3.445359709458
C 0.111621587849 -0.02061927686 -3.190559674075
O 0.921182355864 0.211957751932 -4.168996831808
O 0.383592801156 -0.485298603064 -2.014523586704
H -1.559894497074 0.69731736931 -4.45335722491
H -1.992028284253 -0.627546676288 -3.31707373131
H -1.757490124924 1.015219649886 -2.693700136141
Br -6.0733662e-05 1.2886121e-05 2.395918778202
C -0.031644960673 -0.238155828347 -4.513217807345
C -0.00212562585 0.022655626949 -2.966172644556
O -0.777977388755 0.954849307098 -2.523579188039
O 0.80794651891 -0.733800201162 -2.299453966052
H -0.748615168832 0.425529271745 -5.011778396653
H 0.975297893244 -0.078504007306 -4.92681525655
H -0.300082058364 -1.288524930562 -4.699792495432
Br -1.684699e-06 -1.003858e-05 2.301741603359
C 1.103305574538 0.620618801216 -1.914589571863
C -0.089665876708 -0.049210959583 -2.682957940623
O -1.059648075856 -0.501184070956 -1.960687338292
O 0.034899950397 -0.075584580977 -3.97010357445
H 0.924609306856 0.622136353159 -0.832391718585
H 2.031388141202 0.074100537454 -2.139235964742
H 1.234539234477 1.651743077808 -2.274734394484
Br 4.7576169e-05 2.6841112e-05 1.968116462907
C 0.150389836243 -0.857140775354 -1.763374385717
C -0.017865325293 0.067146990162 -3.020205746396
O -1.226725521604 0.287486523244 -3.416346502942
O 1.087557239982 0.508765795251 -3.52614040526
H -0.824216096106 -1.181519013948 -1.378655153495
H 0.754788499927 -1.734711206889 -2.037341277945
H 0.699705205545 -0.311643247326 -0.981818941425
Br 6.096162e-06 -3.7136433e-05 2.190614762132
C 0.154169583796 0.890998092397 -2.018402900614
C -0.006023288135 -0.070147938039 -3.248353832159
O 1.073384435988 -0.370986545395 -3.88959877794
O -1.217211570254 -0.456694810003 -3.486178466919
H 1.205151228106 1.165551439817 -1.866268435651
H -0.448114768301 1.796466757278 -2.185332589832
H -0.238903633819 0.397142423445 -1.117434607955
Br 7.095342e-06 3.8579105e-05 2.361751365397
C -0.896871670128 0.547994835454 -3.615174604389
C 0.068094836196 -0.048572271885 -2.531112765671
O -0.090785186838 -1.2967178803 -2.241786545743
O 0.924181168304 0.788114749762 -2.041187143099
H -1.583250398161 -0.217681741766 -3.996895017109
H -1.470021894335 1.376713342868 -3.173348936319
H -0.302168541673 0.964501641286 -4.441609181497
Br -3.9006065e-05 2.3352328e-05 1.950927602555
C 0.930234249383 1.118773724256 -3.177158481064
C -0.073485178039 -0.087371809238 -3.175424958983
O -0.441612708041 -0.529636844848 -2.0196984589
O -0.422504825673 -0.510021837087 -4.346965967822
H 1.170104170417 1.434137392957 -2.154370609543
H 1.850643939914 0.823408596622 -3.702602015576
H 0.489107174653 1.958069387099 -3.734951932812
Br 4.026062e-05 4.8482622e-05 2.378816414326
C -0.419936852434 0.177428549901 -4.391267900481
C 0.030621239252 -0.019569540217 -2.901156528617
O -0.348949847825 -1.109868519057 -2.323234466693
O 0.739176540969 0.945619968464 -2.411958519008
H -1.00179010137 -0.682589986911 -4.744682339526
H -1.023315692288 1.094137231776 -4.469143655351
H 0.468876450304 0.315024789156 -5.024688794009
Br -1.8353058e-05 7.297966e-06 2.250402602103
