12
Coordinates from XML
N -0.121591 0.373057 -2.57335
C -0.352032 0.329179 -1.08642
H -0.703448 1.10658 -3.012
H -0.363329 -0.53331 -3.00784
H 0.869458 0.578474 -2.78398
H -1.41972 0.141292 -0.937045
H -0.108422 1.3235 -0.699718
C 0.469339 -0.733002 -0.333766
H 0.233753 -1.73558 -0.699046
H 0.24391 -0.697289 0.734957
H 1.54023 -0.557931 -0.462811
F 1.28472e-05 -4.60328e-05 3.37026
