12
Coordinates from XML
N -0.634126 0.798838 -0.310702
C 0.550216 0.0899882 -0.911422
H -0.326159 1.50805 0.375736
H -1.25429 0.128629 0.173998
H -1.18462 1.2769 -1.04361
H 1.10195 -0.363098 -0.0820439
H 1.1753 0.858298 -1.37675
C 0.200915 -0.990556 -1.95055
H -0.416284 -1.77343 -1.50303
H 1.11308 -1.45319 -2.3355
H -0.343464 -0.556621 -2.79284
F 8.79967e-05 -0.000103973 2.49208
