12
Coordinates from XML
N -1.099098562665 -0.581837527686 -1.303960199821
C -0.047053320374 0.353391909373 -0.770532230241
H -1.96729654725 -0.511379379212 -0.746917254641
H -0.770535138031 -1.561320677891 -1.266845056583
H -1.326712495515 -0.354169841573 -2.286353876701
H 0.120272400337 0.078041596783 0.275295000923
H -0.471608991657 1.361263571195 -0.809353917206
C 1.290578104894 0.326942920203 -1.531721889004
H 1.736489671987 -0.670085096652 -1.497110745708
H 1.994722642405 1.031653256945 -1.082471952797
H 1.146782944074 0.608123844747 -2.577843934511
F 0.000143725227 7.9405839e-05 2.945315270522
