12
Coordinates from XML
N -1.0991 -0.581838 -1.30396
C -0.0470533 0.353392 -0.770532
H -1.9673 -0.511379 -0.746917
H -0.770535 -1.56132 -1.26685
H -1.32671 -0.35417 -2.28635
H 0.120272 0.0780416 0.275295
H -0.471609 1.36126 -0.809354
C 1.29058 0.326943 -1.53172
H 1.73649 -0.670085 -1.49711
H 1.99472 1.03165 -1.08247
H 1.14678 0.608124 -2.57784
F 0.000143725 7.94058e-05 2.94532
