12
Coordinates from XML
N -0.614389 -1.00488 -1.58864
C 0.541542 -0.0731681 -1.34017
H -0.304154 -1.8409 -2.11195
H -1.3515 -0.534289 -2.13995
H -1.0295 -1.31899 -0.695475
H 0.950526 0.192027 -2.31995
H 1.29223 -0.642819 -0.783817
C 0.186699 1.20834 -0.564801
H -0.55592 1.79724 -1.10868
H 1.07797 1.8256 -0.427428
H -0.215755 0.965503 0.421694
F 8.53315e-05 0.00013114 2.86039
