12
Coordinates from XML
N -0.270821 0.397631 -2.48758
C -0.189805 0.404766 -0.98446
H -0.734317 1.25496 -2.83281
H -0.811544 -0.418007 -2.82086
H 0.674019 0.351434 -2.90458
H -1.21572 0.487299 -0.612622
H 0.364196 1.30538 -0.702432
C 0.485782 -0.832036 -0.365372
H -0.0581694 -1.74275 -0.627694
H 0.503786 -0.746909 0.723981
H 1.51584 -0.927884 -0.717378
F 3.38427e-05 -4.85899e-05 3.24282
