12
Coordinates from XML
N -0.00617756 0.620763 -0.127595
C -0.0230086 0.39744 -1.61617
H -0.0430155 1.63065 0.0910273
H 0.855092 0.231238 0.290977
H -0.818399 0.163927 0.319994
H 0.839765 0.931454 -2.02607
H -0.939928 0.859769 -1.99441
C 0.0287048 -1.07813 -2.05136
H 0.942673 -1.55661 -1.69105
H 0.0121092 -1.1511 -3.14162
H -0.8303 -1.62813 -1.65929
F 6.12985e-07 -7.79136e-05 2.93099
