12
Coordinates from XML
N 0.303152331545 0.425084003658 -0.064960623542
C 0.17752127814 0.397174214436 -1.564772802645
H 0.773039693833 1.291819622236 0.246494297998
H 0.856997886875 -0.380694254319 0.270740432773
H -0.6286864291 0.385167559265 0.3809331034
H 1.191582318423 0.474750146766 -1.968793186045
H -0.388435827014 1.289041919678 -1.850822587773
C -0.51087563117 -0.856015995384 -2.134852681929
H 0.044494908738 -1.758475717284 -1.86796330962
H -0.561572713726 -0.796163466794 -3.224856890288
H -1.52961141633 -0.947376282012 -1.750220659391
F -3.8190666e-05 -5.2256881e-05 2.90266766106
