12
Coordinates from XML
N 0.404392 1.09377 -1.66174
C -0.304875 0.123333 -0.75554
H 0.272529 2.0649 -1.33228
H 0.0384674 1.02782 -2.62634
H 1.41888 0.896453 -1.68658
H -1.36134 0.408703 -0.751113
H 0.107125 0.269335 0.247704
C -0.171477 -1.35635 -1.15816
H -0.586128 -1.52564 -2.15491
H -0.712342 -1.99032 -0.45119
H 0.876941 -1.66445 -1.16007
F -5.57168e-05 -0.000142354 2.95952
