12
Coordinates from XML
N 1.162371052211 0.437732803747 -1.31166403442
C -0.214193516478 0.242902607019 -0.73450731985
H 1.710761982666 1.097459464824 -0.734553079786
H 1.106160503177 0.818213728562 -2.271243806731
H 1.673635409352 -0.460005499821 -1.349250062743
H -0.683158451396 1.230835262581 -0.694118623535
H -0.079005067352 -0.128553249832 0.285935994467
C -1.116318022516 -0.725046205203 -1.521027216626
H -1.271755546054 -0.367055412085 -2.541704291718
H -2.092227676315 -0.80968445306 -1.03657039892
H -0.669719678034 -1.721379709778 -1.565530711613
F -0.000154319485 -5.5265593e-05 2.916997831584
