12
Coordinates from XML
N -0.0709424 0.694295 -2.26539
C -0.530839 -0.0289191 -1.02787
H -0.866383 1.16063 -2.73318
H 0.356641 0.034725 -2.93685
H 0.631372 1.41487 -2.02819
H -1.29108 -0.74884 -1.34617
H -0.998472 0.719209 -0.380427
C 0.580303 -0.760051 -0.253161
H 1.05468 -1.51912 -0.879961
H 0.163523 -1.25584 0.627039
H 1.34638 -0.0565527 0.0819896
F 4.63609e-06 -9.13091e-05 2.98792
