12
Coordinates from XML
N 0.808764578031 -0.072178083994 -0.245185309428
C 0.315954953956 0.060035837193 -1.661397455952
H 1.841723979741 -0.040660611063 -0.213084573919
H 0.500347335372 -0.968569939665 0.167221219275
H 0.444122366418 0.696410063593 0.342221135036
H 0.763242927448 -0.761003679092 -2.230078271848
H 0.703495851676 1.009572940368 -2.043171303129
C -1.214571008219 0.025275280265 -1.821550689727
H -1.621272724599 -0.920090877522 -1.454159256912
H -1.486444668215 0.127455531872 -2.875071265123
H -1.680858979611 0.843781005287 -1.267714070732
F -0.000103284709 9.988201e-06 2.888531066347
