12
Coordinates from XML
N -0.418685 0.725383 -2.14998
C 0.215046 -0.463369 -1.47823
H -0.423108 0.605656 -3.17696
H 0.101233 1.59098 -1.9283
H -1.39596 0.845559 -1.83497
H 1.2295 -0.550016 -1.87942
H -0.363082 -1.34205 -1.78031
C 0.272275 -0.386157 0.0580402
H 0.85392 0.480698 0.381076
H 0.744103 -1.28441 0.463982
H -0.732764 -0.308122 0.479845
F 5.6802e-05 -9.91988e-05 2.97374
