12
Coordinates from XML
N -0.418685368766 0.725383277423 -2.14998263543
C 0.215046388262 -0.463369403462 -1.478231331505
H -0.423107705739 0.605655554342 -3.176956174116
H 0.101232904422 1.590982043064 -1.92830163596
H -1.395957162958 0.845559366981 -1.834965870994
H 1.229497027129 -0.550016175509 -1.879420223544
H -0.36308223478 -1.342047730449 -1.780310163936
C 0.272274707806 -0.38615674521 0.058040194088
H 0.853919959958 0.48069752067 0.381076423749
H 0.744102558501 -1.284405824922 0.463982017143
H -0.732763753219 -0.308121788198 0.479845044753
F 5.6801951e-05 -9.919882e-05 2.973738754247
