12
Coordinates from XML
N -0.569629 -0.418655 -2.27092
C 0.194766 -0.462678 -0.974864
H -0.712635 -1.37243 -2.64361
H -0.0560895 0.131157 -2.97993
H -1.49725 0.0166159 -2.13384
H 1.14595 -0.961251 -1.18522
H -0.387093 -1.08282 -0.286081
C 0.462524 0.910395 -0.332726
H 1.05122 1.54287 -1.00169
H 1.019 0.789047 0.599942
H -0.476155 1.4219 -0.106116
F 7.64185e-05 5.0836e-05 3.01624
