12
Coordinates from XML
N -0.569629142219 -0.418655191056 -2.270920002806
C 0.194766416973 -0.462678218856 -0.974864412713
H -0.712635300077 -1.372428488094 -2.643605755916
H -0.056089467548 0.131157166754 -2.979934863819
H -1.497253568515 0.016615887145 -2.133843285886
H 1.145947241246 -0.961251210428 -1.185221966675
H -0.387093013652 -1.082821330639 -0.286081390273
C 0.462524214731 0.910395391514 -0.332726033744
H 1.051217270478 1.542868902083 -1.001693647193
H 1.019000761743 0.78904687896 0.599942227068
H -0.476154602186 1.421904083113 -0.106116166811
F 7.6418457e-05 5.0835969e-05 3.016237176834
