12
Coordinates from XML
N 0.103791879364 -1.05787172135 -1.825476241546
C 0.516598021332 0.239619606385 -1.183521387912
H 0.903297112449 -1.49438121249 -2.314638566663
H -0.649957044378 -0.901053760981 -2.515396082298
H -0.242098309974 -1.72392409829 -1.11451054463
H 0.899858629699 0.880603934593 -1.98340930879
H 1.333188438192 0.004864426478 -0.493862033811
C -0.604154295578 0.973889662969 -0.425808511127
H -1.426676398818 1.226070205167 -1.099575746246
H -0.221875021482 1.901088911893 0.008271899615
H -0.995169572871 0.353469899742 0.384313371692
F -9.071293e-06 0.00014083961 2.846264364916
