12
Coordinates from XML
N 0.648245 -0.124736 -0.256274
C -0.292996 0.485429 -1.26015
H 0.710866 0.464225 0.591212
H 1.59748 -0.218545 -0.654851
H 0.322227 -1.06401 0.026953
H 0.0923836 1.4837 -1.48927
H -1.26329 0.584097 -0.763815
C -0.459113 -0.315652 -2.56401
H 0.498334 -0.41785 -3.08068
H -1.15599 0.193873 -3.23409
H -0.852076 -1.31426 -2.3579
F -8.75834e-05 2.0628e-05 3.18588
