12
Coordinates from XML
N 0.648244756453 -0.124736323092 -0.256273925586
C -0.292995651966 0.485428682463 -1.26014834505
H 0.71086584537 0.464225333601 0.591211590554
H 1.597483802856 -0.218545317055 -0.654851151271
H 0.322227416957 -1.064009033312 0.026952987478
H 0.092383588898 1.483704429879 -1.489274209441
H -1.263293451832 0.58409659976 -0.76381503993
C -0.459112603244 -0.315651839526 -2.56400502095
H 0.498333509225 -0.417849660018 -3.080679454714
H -1.155989617473 0.193872820314 -3.234086166524
H -0.852075627332 -1.314257648665 -2.357904088509
F -8.7583422e-05 2.0628009e-05 3.185883026111
