12
Coordinates from XML
N 0.354349 -0.446301 0.0374325
C -0.502651 0.299699 -0.876567
H 0.326349 0.0466989 0.990433
H 1.35935 -0.429301 -0.139567
H 0.0423487 -1.3763 0.318433
H -0.105651 1.3157 -0.945567
H -1.50565 0.325699 -0.441567
C -0.504651 -0.385301 -2.22557
H 0.504349 -0.428301 -2.64957
H -1.14365 0.161699 -2.92657
H -0.885651 -1.4093 -2.14857
F 0.449769 0.478159 2.35315
