12
Coordinates from XML
N 0.329818480035 -0.532055645003 -0.23341401807
C -0.527181519965 0.213944354997 -1.14741401807
H 0.301818480035 -0.039055645003 0.71958598193
H 1.334818480035 -0.515055645003 -0.41041401807
H 0.017818480035 -1.462055645003 0.04758598193
H -0.130181519965 1.229944354997 -1.21641401807
H -1.530181519965 0.239944354997 -0.71241401807
C -0.529181519965 -0.471055645003 -2.49641401807
H 0.479818480035 -0.514055645003 -2.92041401807
H -1.168181519965 0.075944354997 -3.19741401807
H -0.910181519965 -1.495055645003 -2.41941401807
F 0.509247585805 0.686089080128 3.009877596054
