12
Coordinates from XML
N 0.329508 -0.53314 -0.23684
C -0.527492 0.21286 -1.15084
H 0.301508 -0.0401404 0.71616
H 1.33451 -0.51614 -0.41384
H 0.0175082 -1.46314 0.04416
H -0.130492 1.22886 -1.21984
H -1.53049 0.23886 -0.71584
C -0.529492 -0.47214 -2.49984
H 0.479508 -0.51514 -2.92384
H -1.16849 0.0748596 -3.20084
H -0.910492 -1.49614 -2.42284
F 0.51 0.688719 3.01818
