12
Coordinates from XML
N 0.329508190398 -0.533140376544 -0.236840025964
C -0.527491809602 0.212859623456 -1.150840025964
H 0.301508190398 -0.040140376544 0.716159974036
H 1.334508190398 -0.516140376544 -0.413840025964
H 0.017508190398 -1.463140376544 0.044159974036
H -0.130491809602 1.228859623456 -1.219840025964
H -1.530491809602 0.238859623456 -0.715840025964
C -0.529491809602 -0.472140376544 -2.499840025964
H 0.479508190398 -0.515140376544 -2.923840025964
H -1.168491809602 0.074859623456 -3.200840025964
H -0.910491809602 -1.496140376544 -2.422840025964
F 0.509999949108 0.688719242748 3.018184681776
