12
Coordinates from XML
N 0.328887611124 -0.535309839626 -0.243692041752
C -0.528112388876 0.210690160374 -1.157692041752
H 0.300887611124 -0.042309839626 0.709307958248
H 1.333887611124 -0.518309839626 -0.420692041752
H 0.016887611124 -1.465309839626 0.037307958248
H -0.131112388876 1.226690160374 -1.226692041752
H -1.531112388876 0.236690160374 -0.722692041752
C -0.530112388876 -0.474309839626 -2.506692041752
H 0.478887611124 -0.517309839626 -2.930692041752
H -1.169112388876 0.072690160374 -3.207692041752
H -0.911112388876 -1.498309839626 -2.429692041752
F 0.511504675713 0.693979567988 3.034798853221
