12
Coordinates from XML
N 0.328888 -0.53531 -0.243692
C -0.528112 0.21069 -1.15769
H 0.300888 -0.0423098 0.709308
H 1.33389 -0.51831 -0.420692
H 0.0168876 -1.46531 0.037308
H -0.131112 1.22669 -1.22669
H -1.53111 0.23669 -0.722692
C -0.530112 -0.47431 -2.50669
H 0.478888 -0.51731 -2.93069
H -1.16911 0.0726902 -3.20769
H -0.911112 -1.49831 -2.42969
F 0.511505 0.69398 3.0348
