12
Coordinates from XML
N 0.328577 -0.536395 -0.247118
C -0.528423 0.209605 -1.16112
H 0.300577 -0.0433946 0.705882
H 1.33358 -0.519395 -0.424118
H 0.0165773 -1.46639 0.033882
H -0.131423 1.22561 -1.23012
H -1.53142 0.235605 -0.726118
C -0.530423 -0.475395 -2.51012
H 0.478577 -0.518395 -2.93412
H -1.16942 0.0716054 -3.21112
H -0.911423 -1.49939 -2.43312
F 0.512257 0.69661 3.04311
