12
Coordinates from XML
N 0.327956742213 -0.53856403425 -0.253970065433
C -0.529043257787 0.20743596575 -1.167970065433
H 0.299956742213 -0.04556403425 0.699029934567
H 1.332956742213 -0.52156403425 -0.430970065433
H 0.015956742213 -1.46856403425 0.027029934567
H -0.132043257787 1.22343596575 -1.236970065433
H -1.532043257787 0.23343596575 -0.732970065433
C -0.531043257787 -0.47756403425 -2.516970065433
H 0.477956742213 -0.52056403425 -2.940970065433
H -1.170043257787 0.06943596575 -3.217970065433
H -0.912043257787 -1.50156403425 -2.439970065433
F 0.513761765621 0.701870055849 3.059720110388
