12
Coordinates from XML
N 0.327957 -0.538564 -0.25397
C -0.529043 0.207436 -1.16797
H 0.299957 -0.045564 0.69903
H 1.33296 -0.521564 -0.43097
H 0.0159567 -1.46856 0.0270299
H -0.132043 1.22344 -1.23697
H -1.53204 0.233436 -0.73297
C -0.531043 -0.477564 -2.51697
H 0.477957 -0.520564 -2.94097
H -1.17004 0.069436 -3.21797
H -0.912043 -1.50156 -2.43997
F 0.513762 0.70187 3.05972
