12
Coordinates from XML
N 0.327646 -0.539649 -0.257396
C -0.529354 0.206351 -1.1714
H 0.299646 -0.0466488 0.695604
H 1.33265 -0.522649 -0.434396
H 0.0156465 -1.46965 0.0236039
H -0.132354 1.22235 -1.2404
H -1.53235 0.232351 -0.736396
C -0.531354 -0.478649 -2.5204
H 0.477646 -0.521649 -2.9444
H -1.17035 0.0683512 -3.2214
H -0.912354 -1.50265 -2.4434
F 0.514514 0.7045 3.06803
