12
Coordinates from XML
N 0.327336 -0.540733 -0.260822
C -0.529664 0.205267 -1.17482
H 0.299336 -0.0477335 0.692178
H 1.33234 -0.523733 -0.437822
H 0.0153362 -1.47073 0.0201779
H -0.132664 1.22127 -1.24382
H -1.53266 0.231267 -0.739822
C -0.531664 -0.479733 -2.52382
H 0.477336 -0.522733 -2.94782
H -1.17066 0.0672665 -3.22482
H -0.912664 -1.50373 -2.44682
F 0.515266 0.70713 3.07633
