12
Coordinates from XML
N 0.327025873301 -0.541818228874 -0.264248089115
C -0.529974126699 0.204181771126 -1.178248089115
H 0.299025873301 -0.048818228874 0.688751910885
H 1.332025873301 -0.524818228874 -0.441248089115
H 0.015025873301 -1.471818228874 0.016751910885
H -0.132974126699 1.220181771126 -1.247248089115
H -1.532974126699 0.230181771126 -0.743248089115
C -0.531974126699 -0.480818228874 -2.527248089115
H 0.477025873301 -0.523818228874 -2.951248089115
H -1.170974126699 0.066181771126 -3.228248089115
H -0.912974126699 -1.504818228874 -2.450248089115
F 0.51601885553 0.709760543709 3.084641367555
