12
Coordinates from XML
N 0.326095 -0.545072 -0.274526
C -0.530905 0.200928 -1.18853
H 0.298095 -0.0520724 0.678474
H 1.3311 -0.528072 -0.451526
H 0.014095 -1.47507 0.00647389
H -0.133905 1.21693 -1.25753
H -1.5339 0.226928 -0.753526
C -0.532905 -0.484072 -2.53753
H 0.476095 -0.527072 -2.96153
H -1.1719 0.0629276 -3.23853
H -0.913905 -1.50807 -2.46053
F 0.518276 0.717651 3.10956
