12
Coordinates from XML
N 0.325784714753 -0.546157155039 -0.277952120691
C -0.531215285247 0.199842844961 -1.191952120691
H 0.297784714753 -0.053157155039 0.675047879309
H 1.330784714753 -0.529157155039 -0.454952120691
H 0.013784714753 -1.476157155039 0.003047879309
H -0.134215285247 1.215842844961 -1.260952120691
H -1.534215285247 0.225842844961 -0.756952120691
C -0.533215285247 -0.485157155039 -2.540952120691
H 0.475784714753 -0.528157155039 -2.964952120691
H -1.172215285247 0.061842844961 -3.241952120691
H -0.914215285247 -1.509157155039 -2.463952120691
F 0.51902830874 0.72028119419 3.117869710444
