12
Coordinates from XML
N 0.325474 -0.547242 -0.281378
C -0.531526 0.198758 -1.19538
H 0.297474 -0.0542419 0.671622
H 1.33047 -0.530242 -0.458378
H 0.0134744 -1.47724 -0.000378129
H -0.134526 1.21476 -1.26438
H -1.53453 0.224758 -0.760378
C -0.533526 -0.486242 -2.54438
H 0.475474 -0.529242 -2.96838
H -1.17253 0.0607581 -3.24538
H -0.914526 -1.51024 -2.46738
F 0.519781 0.722911 3.12618
