12
Coordinates from XML
N 0.325474425116 -0.54724188658 -0.281378128585
C -0.531525574884 0.19875811342 -1.195378128585
H 0.297474425116 -0.05424188658 0.671621871415
H 1.330474425116 -0.53024188658 -0.458378128585
H 0.013474425116 -1.47724188658 -0.000378128585
H -0.134525574884 1.21475811342 -1.264378128585
H -1.534525574884 0.22475811342 -0.760378128585
C -0.533525574884 -0.48624188658 -2.544378128585
H 0.475474425116 -0.52924188658 -2.968378128585
H -1.172525574884 0.06075811342 -3.245378128585
H -0.914525574884 -1.51024188658 -2.467378128585
F 0.519780672043 0.72291135681 3.126176796167
