12
Coordinates from XML
N 0.325164135479 -0.548326618121 -0.284804136479
C -0.531835864521 0.197673381879 -1.198804136479
H 0.297164135479 -0.055326618121 0.668195863521
H 1.330164135479 -0.531326618121 -0.461804136479
H 0.013164135479 -1.478326618121 -0.003804136479
H -0.134835864521 1.213673381879 -1.267804136479
H -1.534835864521 0.223673381879 -0.763804136479
C -0.533835864521 -0.487326618121 -2.547804136479
H 0.475164135479 -0.530326618121 -2.971804136479
H -1.172835864521 0.059673381879 -3.248804136479
H -0.914835864521 -1.511326618121 -2.470804136479
F 0.520533035346 0.725541519431 3.134483881889
