12
Coordinates from XML
N 0.324543556204 -0.550496081204 -0.291656152266
C -0.532456443796 0.195503918796 -1.205656152266
H 0.296543556204 -0.057496081204 0.661343847734
H 1.329543556204 -0.533496081204 -0.468656152266
H 0.012543556204 -1.480496081204 -0.010656152266
H -0.135456443796 1.211503918796 -1.274656152266
H -1.535456443796 0.221503918796 -0.770656152266
C -0.534456443796 -0.489496081204 -2.554656152266
H 0.474543556204 -0.532496081204 -2.978656152266
H -1.173456443796 0.057503918796 -3.255656152266
H -0.915456443796 -1.513496081204 -2.477656152266
F 0.522037761951 0.730801844671 3.151098053334
