12
Coordinates from XML
N 0.324544 -0.550496 -0.291656
C -0.532456 0.195504 -1.20566
H 0.296544 -0.0574961 0.661344
H 1.32954 -0.533496 -0.468656
H 0.0125436 -1.4805 -0.0106562
H -0.135456 1.2115 -1.27466
H -1.53546 0.221504 -0.770656
C -0.534456 -0.489496 -2.55466
H 0.474544 -0.532496 -2.97866
H -1.17346 0.0575039 -3.25566
H -0.915456 -1.5135 -2.47766
F 0.522038 0.730802 3.1511
