12
Coordinates from XML
N 0.324233266567 -0.551580812745 -0.29508216016
C -0.532766733433 0.194419187255 -1.20908216016
H 0.296233266567 -0.058580812745 0.65791783984
H 1.329233266567 -0.534580812745 -0.47208216016
H 0.012233266567 -1.481580812745 -0.01408216016
H -0.135766733433 1.210419187255 -1.27808216016
H -1.535766733433 0.220419187255 -0.77408216016
C -0.534766733433 -0.490580812745 -2.55808216016
H 0.474233266567 -0.533580812745 -2.98208216016
H -1.173766733433 0.056419187255 -3.25908216016
H -0.915766733433 -1.514580812745 -2.48108216016
F 0.522790125254 0.733432007291 3.159405139056
