12
Coordinates from XML
N 0.323302397656 -0.554835007369 -0.305360183842
C -0.533697602344 0.191164992631 -1.219360183842
H 0.295302397656 -0.061835007369 0.647639816158
H 1.328302397656 -0.537835007369 -0.482360183842
H 0.011302397656 -1.484835007369 -0.024360183842
H -0.136697602344 1.207164992631 -1.288360183842
H -1.536697602344 0.217164992631 -0.784360183842
C -0.535697602344 -0.493835007369 -2.568360183842
H 0.473302397656 -0.536835007369 -2.992360183842
H -1.174697602344 0.053164992631 -3.269360183842
H -0.916697602344 -1.517835007369 -2.491360183842
F 0.525047215162 0.741322495152 3.184326396223
