12
Coordinates from XML
N 0.323302 -0.554835 -0.30536
C -0.533698 0.191165 -1.21936
H 0.295302 -0.061835 0.64764
H 1.3283 -0.537835 -0.48236
H 0.0113024 -1.48484 -0.0243602
H -0.136698 1.20716 -1.28836
H -1.5367 0.217165 -0.78436
C -0.535698 -0.493835 -2.56836
H 0.473302 -0.536835 -2.99236
H -1.1747 0.053165 -3.26936
H -0.916698 -1.51784 -2.49136
F 0.525047 0.741322 3.18433
