12
Coordinates from XML
N 0.322061239108 -0.559173933534 -0.319064215418
C -0.534938760892 0.186826066466 -1.233064215418
H 0.294061239108 -0.066173933534 0.633935784582
H 1.327061239108 -0.542173933534 -0.496064215418
H 0.010061239108 -1.489173933534 -0.038064215418
H -0.137938760892 1.202826066466 -1.302064215418
H -1.537938760892 0.212826066466 -0.798064215418
C -0.536938760892 -0.498173933534 -2.582064215418
H 0.472061239108 -0.541173933534 -3.006064215418
H -1.175938760892 0.048826066466 -3.283064215418
H -0.917938760892 -1.522173933534 -2.505064215418
F 0.528056668373 0.751843145632 3.217554739113
