12
Coordinates from XML
N 0.321750949471 -0.560258665075 -0.322490223312
C -0.535249050529 0.185741334925 -1.236490223312
H 0.293750949471 -0.067258665075 0.630509776688
H 1.326750949471 -0.543258665075 -0.499490223312
H 0.009750949471 -1.490258665075 -0.041490223312
H -0.138249050529 1.201741334925 -1.305490223312
H -1.538249050529 0.211741334925 -0.801490223312
C -0.537249050529 -0.499258665075 -2.585490223312
H 0.471750949471 -0.542258665075 -3.009490223312
H -1.176249050529 0.047741334925 -3.286490223312
H -0.918249050529 -1.523258665075 -2.508490223312
F 0.528809031675 0.754473308253 3.225861824835
