12
Coordinates from XML
N 0.321441 -0.561343 -0.325916
C -0.535559 0.184657 -1.23992
H 0.293441 -0.0683434 0.627084
H 1.32644 -0.544343 -0.502916
H 0.00944066 -1.49134 -0.0449162
H -0.138559 1.20066 -1.30892
H -1.53856 0.210657 -0.804916
C -0.537559 -0.500343 -2.58892
H 0.471441 -0.543343 -3.01292
H -1.17656 0.0466566 -3.28992
H -0.918559 -1.52434 -2.51192
F 0.529561 0.757103 3.23417
