12
Coordinates from XML
N 0.32082 -0.563513 -0.332768
C -0.53618 0.182487 -1.24677
H 0.29282 -0.0705129 0.620232
H 1.32582 -0.546513 -0.509768
H 0.00882008 -1.49351 -0.0517682
H -0.13918 1.19849 -1.31577
H -1.53918 0.208487 -0.811768
C -0.53818 -0.502513 -2.59577
H 0.47082 -0.545513 -3.01977
H -1.17718 0.0444871 -3.29677
H -0.91918 -1.52651 -2.51877
F 0.531066 0.762364 3.25078
