12
Coordinates from XML
N 0.32051 -0.564598 -0.336194
C -0.53649 0.181402 -1.25019
H 0.29251 -0.0715976 0.616806
H 1.32551 -0.547598 -0.513194
H 0.00850979 -1.4946 -0.0551943
H -0.13949 1.1974 -1.31919
H -1.53949 0.207402 -0.815194
C -0.53849 -0.503598 -2.59919
H 0.47051 -0.546598 -3.02319
H -1.17749 0.0434024 -3.30019
H -0.91949 -1.5276 -2.52219
F 0.531818 0.764994 3.25909
