12
Coordinates from XML
N 0.3202 -0.565682 -0.33962
C -0.5368 0.180318 -1.25362
H 0.2922 -0.0726823 0.61338
H 1.3252 -0.548682 -0.51662
H 0.0081995 -1.49568 -0.0586203
H -0.1398 1.19632 -1.32262
H -1.5398 0.206318 -0.81862
C -0.5388 -0.504682 -2.60262
H 0.4702 -0.547682 -3.02662
H -1.1778 0.0423177 -3.30362
H -0.9198 -1.52868 -2.52562
F 0.532571 0.767624 3.2674
