12
Coordinates from XML
N 0.320199501285 -0.565682322782 -0.339620262781
C -0.536800498715 0.180317677218 -1.253620262781
H 0.292199501285 -0.072682322782 0.613379737219
H 1.325199501285 -0.548682322782 -0.516620262781
H 0.008199501285 -1.495682322782 -0.058620262781
H -0.139800498715 1.196317677218 -1.322620262781
H -1.539800498715 0.206317677218 -0.818620262781
C -0.538800498715 -0.504682322782 -2.602620262781
H 0.470199501285 -0.547682322782 -3.026620262781
H -1.177800498715 0.042317677218 -3.303620262781
H -0.919800498715 -1.528682322782 -2.525620262781
F 0.532570848189 0.767624121353 3.267397253447
