12
Coordinates from XML
N 0.337113 -0.506553 -0.152868
C -0.519887 0.239447 -1.06687
H 0.309113 -0.0135534 0.800132
H 1.34211 -0.489553 -0.329868
H 0.0251135 -1.43655 0.128132
H -0.122887 1.25545 -1.13587
H -1.52289 0.265447 -0.631868
C -0.521887 -0.445553 -2.41587
H 0.487113 -0.488553 -2.83987
H -1.16089 0.101447 -3.11687
H -0.902887 -1.46955 -2.33887
F 0.491559 0.624253 2.81458
