12
Coordinates from XML
N 0.334242745881 -0.516588996632 -0.184564272861
C -0.522757254119 0.229411003368 -1.098564272861
H 0.306242745881 -0.023588996632 0.768435727139
H 1.339242745881 -0.499588996632 -0.361564272861
H 0.022242745881 -1.446588996632 0.096435727139
H -0.125757254119 1.245411003368 -1.167564272861
H -1.525757254119 0.255411003368 -0.663564272861
C -0.524757254119 -0.455588996632 -2.447564272861
H 0.484242745881 -0.498588996632 -2.871564272861
H -1.163757254119 0.091411003368 -3.148564272861
H -0.905757254119 -1.479588996632 -2.370564272861
F 0.498520011095 0.648586897462 2.891430986026
