12
Coordinates from XML
N 0.331372 -0.526625 -0.216261
C -0.525628 0.219375 -1.13026
H 0.303372 -0.0336246 0.736739
H 1.33637 -0.509625 -0.393261
H 0.019372 -1.45662 0.0647393
H -0.128628 1.23538 -1.19926
H -1.52863 0.245375 -0.695261
C -0.527628 -0.465625 -2.47926
H 0.481372 -0.508625 -2.90326
H -1.16663 0.0813754 -3.18026
H -0.908628 -1.48962 -2.40226
F 0.505481 0.67292 2.96829
