12
Coordinates from XML
N 0.329936685611 -0.531642413939 -0.232108872206
C -0.527063314389 0.214357586061 -1.146108872206
H 0.301936685611 -0.038642413939 0.720891127794
H 1.334936685611 -0.514642413939 -0.409108872206
H 0.017936685611 -1.461642413939 0.048891127794
H -0.130063314389 1.230357586061 -1.215108872206
H -1.530063314389 0.240357586061 -0.711108872206
C -0.529063314389 -0.470642413939 -2.495108872206
H 0.479936685611 -0.513642413939 -2.919108872206
H -1.168063314389 0.076357586061 -3.196108872206
H -0.910063314389 -1.494642413939 -2.418108872206
F 0.508960971214 0.685087113415 3.006712991969
