12
Coordinates from XML
N 0.327066 -0.541678 -0.263805
C -0.529934 0.204322 -1.17781
H 0.299066 -0.048678 0.689195
H 1.33207 -0.524678 -0.440805
H 0.015066 -1.47168 0.0171947
H -0.132934 1.22032 -1.24681
H -1.53293 0.230322 -0.742805
C -0.531934 -0.480678 -2.52681
H 0.477066 -0.523678 -2.95081
H -1.17093 0.066322 -3.22781
H -0.912934 -1.50468 -2.44981
F 0.515922 0.709421 3.08357
