12
Coordinates from XML
N 0.325630625341 -0.546695831246 -0.27965347155
C -0.531369374659 0.199304168754 -1.19365347155
H 0.297630625341 -0.053695831246 0.67334652845
H 1.330630625341 -0.529695831246 -0.45665347155
H 0.013630625341 -1.476695831246 0.00134652845
H -0.134369374659 1.215304168754 -1.26265347155
H -1.534369374659 0.225304168754 -0.75865347155
C -0.533369374659 -0.485695831246 -2.54265347155
H 0.475630625341 -0.528695831246 -2.96665347155
H -1.172369374659 0.061304168754 -3.24365347155
H -0.914369374659 -1.509695831246 -2.46565347155
F 0.519401931333 0.721587329369 3.121994997912
