12
Coordinates from XML
N 0.324195 -0.551714 -0.295502
C -0.532805 0.194286 -1.2095
H 0.296195 -0.0587136 0.657498
H 1.3292 -0.534714 -0.472502
H 0.0121953 -1.48171 -0.0145017
H -0.135805 1.21029 -1.2785
H -1.5358 0.220286 -0.774502
C -0.534805 -0.490714 -2.5585
H 0.474195 -0.533714 -2.9825
H -1.1738 0.0562864 -3.2595
H -0.915805 -1.51471 -2.4815
F 0.522882 0.733754 3.16042
