12
Coordinates from XML
N 0.32276 -0.556731 -0.31135
C -0.53424 0.189269 -1.22535
H 0.29476 -0.0637314 0.64165
H 1.32776 -0.539731 -0.48835
H 0.0107599 -1.48673 -0.0303499
H -0.13724 1.20527 -1.29435
H -1.53724 0.215269 -0.79035
C -0.53624 -0.495731 -2.57435
H 0.47276 -0.538731 -2.99835
H -1.17524 0.0512686 -3.27535
H -0.91724 -1.51973 -2.49735
F 0.526363 0.745921 3.19885
