12
Coordinates from XML
N 0.322759918495 -0.556731442785 -0.311349871112
C -0.534240081505 0.189268557215 -1.225349871112
H 0.294759918495 -0.063731442785 0.641650128888
H 1.327759918495 -0.539731442785 -0.488349871112
H 0.010759918495 -1.486731442785 -0.030349871112
H -0.137240081505 1.205268557215 -1.294349871112
H -1.537240081505 0.215268557215 -0.790349871112
C -0.536240081505 -0.495731442785 -2.574349871112
H 0.472759918495 -0.538731442785 -2.998349871112
H -1.175240081505 0.051268557215 -3.275349871112
H -0.917240081505 -1.519731442785 -2.497349871112
F 0.526362571412 0.745920806671 3.19884966854
