12
Coordinates from XML
N 0.321324565071 -0.561749248554 -0.327198070894
C -0.535675434929 0.184250751446 -1.241198070894
H 0.293324565071 -0.068749248554 0.625801929106
H 1.326324565071 -0.544749248554 -0.504198070894
H 0.009324565071 -1.491749248554 -0.046198070894
H -0.138675434929 1.200250751446 -1.310198070894
H -1.538675434929 0.210250751446 -0.806198070894
C -0.537675434929 -0.500749248554 -2.590198070894
H 0.471324565071 -0.543749248554 -3.014198070894
H -1.176675434929 0.046250751446 -3.291198070894
H -0.918675434929 -1.524749248554 -2.513198070894
F 0.529842891452 0.758087545322 3.237277003855
