12
Coordinates from XML
N 0.442091 0.848603 -1.86015
C -0.397745 -0.351178 -1.36386
H 0.270461 1.03596 -2.85072
H 1.44021 0.661999 -1.73627
H 0.210651 1.69136 -1.32854
H -0.119384 -1.19067 -1.99705
H -1.43499 -0.0892202 -1.5606
C -0.133693 -0.619294 0.108688
H 0.908676 -0.878696 0.300179
H -0.739358 -1.46791 0.425807
H -0.411613 0.227335 0.738341
F 0.00321002 -0.0119732 2.58871
