12
Coordinates from XML
N 0.04029666342 0.566003665924 -2.185847236874
C 0.165683123158 0.42155024108 -0.651404812992
H 0.277773070652 1.513361541387 -2.489007620224
H -0.915691000632 0.36193320829 -2.487263711274
H 0.666750174018 -0.089729661537 -2.659112398177
H -0.500207439809 1.16980599843 -0.227301305047
H 1.192998602164 0.686346146515 -0.41117443672
C -0.189814244977 -0.989889484515 -0.213840884811
H -1.220302793195 -1.250698981709 -0.459939932129
H -0.091236908921 -1.057669792208 0.869316078991
H 0.479265876612 -1.73616584702 -0.644987716811
F -0.008589534319 -0.03683208776 2.609039638539
