12
Coordinates from XML
N 0.0402967 0.566004 -2.31433
C 0.165683 0.42155 -0.779883
H 0.277773 1.51336 -2.61749
H -0.915691 0.361933 -2.61574
H 0.66675 -0.0897297 -2.78759
H -0.500207 1.16981 -0.355779
H 1.193 0.686346 -0.539652
C -0.189814 -0.989889 -0.342319
H -1.2203 -1.2507 -0.588418
H -0.0912369 -1.05767 0.740838
H 0.479266 -1.73617 -0.773466
F -0.00858953 -0.0368321 2.92056
