12
Coordinates from XML
N 0.04029666342 0.566003665924 -2.401923740174
C 0.165683123158 0.42155024108 -0.867481316292
H 0.277773070652 1.513361541387 -2.705084123524
H -0.915691000632 0.36193320829 -2.703340214574
H 0.666750174018 -0.089729661537 -2.875188901477
H -0.500207439809 1.16980599843 -0.443377808347
H 1.192998602164 0.686346146515 -0.62725094002
C -0.189814244977 -0.989889484515 -0.429917388111
H -1.220302793195 -1.250698981709 -0.676016435428
H -0.091236908921 -1.057669792208 0.653239575691
H 0.479265876612 -1.73616584702 -0.861064220111
F -0.008589534319 -0.03683208776 3.132963135239
