12
Coordinates from XML
N 0.04029666342 0.566003665924 -2.483682417098
C 0.165683123158 0.42155024108 -0.949239993216
H 0.277773070652 1.513361541387 -2.786842800448
H -0.915691000632 0.36193320829 -2.785098891498
H 0.666750174018 -0.089729661537 -2.956947578401
H -0.500207439809 1.16980599843 -0.525136485271
H 1.192998602164 0.686346146515 -0.709009616944
C -0.189814244977 -0.989889484515 -0.511676065035
H -1.220302793195 -1.250698981709 -0.757775112353
H -0.091236908921 -1.057669792208 0.571480898766
H 0.479265876612 -1.73616584702 -0.942822897035
F -0.008589534319 -0.03683208776 3.331204458315
