12
Coordinates from XML
N 0.04029666342 0.566003665924 -2.52456175556
C 0.165683123158 0.42155024108 -0.990119331678
H 0.277773070652 1.513361541387 -2.827722138911
H -0.915691000632 0.36193320829 -2.82597822996
H 0.666750174018 -0.089729661537 -2.997826916863
H -0.500207439809 1.16980599843 -0.566015823733
H 1.192998602164 0.686346146515 -0.749888955406
C -0.189814244977 -0.989889484515 -0.552555403497
H -1.220302793195 -1.250698981709 -0.798654450815
H -0.091236908921 -1.057669792208 0.530601560304
H 0.479265876612 -1.73616584702 -0.983702235498
F -0.008589534319 -0.03683208776 3.430325119853
