12
Coordinates from XML
N 0.04029666342 0.566003665924 -2.565441094022
C 0.165683123158 0.42155024108 -1.03099867014
H 0.277773070652 1.513361541387 -2.868601477373
H -0.915691000632 0.36193320829 -2.866857568422
H 0.666750174018 -0.089729661537 -3.038706255325
H -0.500207439809 1.16980599843 -0.606895162195
H 1.192998602164 0.686346146515 -0.790768293868
C -0.189814244977 -0.989889484515 -0.593434741959
H -1.220302793195 -1.250698981709 -0.839533789277
H -0.091236908921 -1.057669792208 0.489722221842
H 0.479265876612 -1.73616584702 -1.02458157396
F -0.008589534319 -0.03683208776 3.529445781391
