12
Coordinates from XML
N 0.494354 1.13869 -1.03458
C 0.452122 -0.357956 -0.648097
H 1.42699 1.53224 -0.889328
H -0.171486 1.67254 -0.470596
H 0.243219 1.26111 -2.01863
H 0.762229 -0.404554 0.393451
H 1.20581 -0.84482 -1.26302
C -0.938412 -0.930627 -0.868245
H -1.69035 -0.43655 -0.251017
H -0.933673 -1.98356 -0.587434
H -1.24528 -0.878056 -1.91398
F -0.0358614 -0.0210491 2.09169
