12
Coordinates from XML
N 0.494354 1.13869 -1.08714
C 0.452122 -0.357956 -0.700656
H 1.42699 1.53224 -0.941887
H -0.171486 1.67254 -0.523155
H 0.243219 1.26111 -2.07119
H 0.762229 -0.404554 0.340892
H 1.20581 -0.84482 -1.31558
C -0.938412 -0.930627 -0.920804
H -1.69035 -0.43655 -0.303576
H -0.933673 -1.98356 -0.639993
H -1.24528 -0.878056 -1.96654
F -0.0358614 -0.0210491 2.21913
