12
Coordinates from XML
N 0.494354 1.13869 -1.13385
C 0.452122 -0.357956 -0.747376
H 1.42699 1.53224 -0.988606
H -0.171486 1.67254 -0.569875
H 0.243219 1.26111 -2.1179
H 0.762229 -0.404554 0.294173
H 1.20581 -0.84482 -1.3623
C -0.938412 -0.930627 -0.967523
H -1.69035 -0.43655 -0.350295
H -0.933673 -1.98356 -0.686713
H -1.24528 -0.878056 -2.01326
F -0.0358614 -0.0210491 2.33241
