12
Coordinates from XML
N 0.494354 1.13869 -1.18057
C 0.452122 -0.357956 -0.794095
H 1.42699 1.53224 -1.03533
H -0.171486 1.67254 -0.616594
H 0.243219 1.26111 -2.16462
H 0.762229 -0.404554 0.247453
H 1.20581 -0.84482 -1.40902
C -0.938412 -0.930627 -1.01424
H -1.69035 -0.43655 -0.397015
H -0.933673 -1.98356 -0.733432
H -1.24528 -0.878056 -2.05997
F -0.0358614 -0.0210491 2.44569
