12
Coordinates from XML
N 0.494354 1.13869 -1.32657
C 0.452122 -0.357956 -0.940093
H 1.42699 1.53224 -1.18132
H -0.171486 1.67254 -0.762591
H 0.243219 1.26111 -2.31062
H 0.762229 -0.404554 0.101456
H 1.20581 -0.84482 -1.55501
C -0.938412 -0.930627 -1.16024
H -1.69035 -0.43655 -0.543012
H -0.933673 -1.98356 -0.87943
H -1.24528 -0.878056 -2.20597
F -0.0358614 -0.0210491 2.79969
