12
Coordinates from XML
N 0.494354 1.13869 -1.42001
C 0.452122 -0.357956 -1.03353
H 1.42699 1.53224 -1.27476
H -0.171486 1.67254 -0.85603
H 0.243219 1.26111 -2.40406
H 0.762229 -0.404554 0.00801737
H 1.20581 -0.84482 -1.64845
C -0.938412 -0.930627 -1.25368
H -1.69035 -0.43655 -0.636451
H -0.933673 -1.98356 -0.972868
H -1.24528 -0.878056 -2.29941
F -0.0358614 -0.0210491 3.02625
