12
Coordinates from XML
N 0.494354 1.13869 -1.46673
C 0.452122 -0.357956 -1.08025
H 1.42699 1.53224 -1.32148
H -0.171486 1.67254 -0.902749
H 0.243219 1.26111 -2.45078
H 0.762229 -0.404554 -0.0387019
H 1.20581 -0.84482 -1.69517
C -0.938412 -0.930627 -1.3004
H -1.69035 -0.43655 -0.68317
H -0.933673 -1.98356 -1.01959
H -1.24528 -0.878056 -2.34613
F -0.0358614 -0.0210491 3.13953
