12
Coordinates from XML
N 0.494353697631 1.138691556831 -1.507608246727
C 0.452122287806 -0.357955659699 -1.121129624134
H 1.426990036201 1.532240331729 -1.362360086733
H -0.171486405253 1.672538769087 -0.943628488317
H 0.243219140623 1.261110354669 -2.491658643201
H 0.762229098946 -0.404553613891 -0.079581208525
H 1.205805608728 -0.844819802702 -1.736051860392
C -0.938411701222 -0.930627388177 -1.341277269459
H -1.690349046286 -0.436549631586 -0.724049286891
H -0.933672715799 -1.983558330875 -1.060466583312
H -1.245275235339 -0.878056233481 -2.387009192183
F -0.035861384906 -0.021049058918 3.238652682739
