12
Coordinates from XML
N 0.494354 1.13869 -1.55433
C 0.452122 -0.357956 -1.16785
H 1.42699 1.53224 -1.40908
H -0.171486 1.67254 -0.990348
H 0.243219 1.26111 -2.53838
H 0.762229 -0.404554 -0.1263
H 1.20581 -0.84482 -1.78277
C -0.938412 -0.930627 -1.388
H -1.69035 -0.43655 -0.770769
H -0.933673 -1.98356 -1.10719
H -1.24528 -0.878056 -2.43373
F -0.0358614 -0.0210491 3.35193
