12
Coordinates from XML
N 0.334960422593 -0.514080093747 -0.176640172971
C -0.522039577407 0.231919906253 -1.090640172971
H 0.306960422593 -0.021080093747 0.776359827029
H 1.339960422593 -0.497080093747 -0.353640172971
H 0.022960422593 -1.444080093747 0.104359827029
H -0.125039577407 1.247919906253 -1.159640172971
H -1.525039577407 0.257919906253 -0.655640172971
C -0.524039577407 -0.453080093747 -2.439640172971
H 0.484960422593 -0.496080093747 -2.863640172971
H -1.163039577407 0.093919906253 -3.140640172971
H -0.905039577407 -1.477080093747 -2.362640172971
F 0.496779851075 0.642503528136 2.872217318369
