12
Coordinates from XML
N 0.33173087739 -0.525370156728 -0.212298622479
C -0.52526912261 0.220629843272 -1.126298622479
H 0.30373087739 -0.032370156728 0.740701377521
H 1.33673087739 -0.508370156728 -0.389298622479
H 0.01973087739 -1.455370156728 0.068701377521
H -0.12826912261 1.236629843272 -1.195298622479
H -1.52826912261 0.246629843272 -0.691298622479
C -0.52726912261 -0.464370156728 -2.475298622479
H 0.48173087739 -0.507370156728 -2.899298622479
H -1.16626912261 0.082629843272 -3.176298622479
H -0.90826912261 -1.488370156728 -2.398298622479
F 0.504610571164 0.669878690101 2.958678822826
