12
Coordinates from XML
N -0.796497525847 -0.806886972574 -0.424339420812
C 0.171796606072 0.395110613504 -0.517668867394
H -1.17023188961 -0.908415241041 0.522129195821
H -0.31518581787 -1.674051828257 -0.674885243707
H -1.581465551412 -0.68458209724 -1.068759180671
H 0.952034187085 0.205564742741 0.216131095647
H -0.40287875885 1.264305623813 -0.205494464805
C 0.720087982006 0.535020344968 -1.92827317162
H 1.293034056581 -0.340797715085 -2.236767100638
H 1.396591344472 1.388777835998 -1.95961031586
H -0.067305952044 0.721581528998 -2.660181585507
F 0.018179880053 0.008693348711 2.285661903678
