12
Coordinates from XML
N -0.796498 -0.806887 -0.465219
C 0.171797 0.395111 -0.558548
H -1.17023 -0.908415 0.48125
H -0.315186 -1.67405 -0.715765
H -1.58147 -0.684582 -1.10964
H 0.952034 0.205565 0.175252
H -0.402879 1.26431 -0.246374
C 0.720088 0.53502 -1.96915
H 1.29303 -0.340798 -2.27765
H 1.39659 1.38878 -2.00049
H -0.067306 0.721582 -2.70106
F 0.0181799 0.00869335 2.38478
