12
Coordinates from XML
N -0.796497525847 -0.806886972574 -0.605376491145
C 0.171796606072 0.395110613504 -0.698705937727
H -1.17023188961 -0.908415241041 0.341092125488
H -0.31518581787 -1.674051828257 -0.855922314039
H -1.581465551412 -0.68458209724 -1.249796251003
H 0.952034187085 0.205564742741 0.035094025314
H -0.40287875885 1.264305623813 -0.386531535137
C 0.720087982006 0.535020344968 -2.109310241953
H 1.293034056581 -0.340797715085 -2.41780417097
H 1.396591344472 1.388777835998 -2.140647386192
H -0.067305952044 0.721581528998 -2.841218655839
F 0.018179880053 0.008693348711 2.724624833345
