12
Coordinates from XML
N -0.796497525847 -0.806886972574 -0.652095735101
C 0.171796606072 0.395110613504 -0.745425181683
H -1.17023188961 -0.908415241041 0.294372881532
H -0.31518581787 -1.674051828257 -0.902641557996
H -1.581465551412 -0.68458209724 -1.29651549496
H 0.952034187085 0.205564742741 -0.011625218642
H -0.40287875885 1.264305623813 -0.433250779094
C 0.720087982006 0.535020344968 -2.156029485909
H 1.293034056581 -0.340797715085 -2.464523414927
H 1.396591344472 1.388777835998 -2.187366630149
H -0.067305952044 0.721581528998 -2.887937899795
F 0.018179880053 0.008693348711 2.837905589389
