12
Coordinates from XML
N -0.796498 -0.806887 -0.692975
C 0.171797 0.395111 -0.786305
H -1.17023 -0.908415 0.253494
H -0.315186 -1.67405 -0.943521
H -1.58147 -0.684582 -1.33739
H 0.952034 0.205565 -0.0525046
H -0.402879 1.26431 -0.47413
C 0.720088 0.53502 -2.19691
H 1.29303 -0.340798 -2.5054
H 1.39659 1.38878 -2.22825
H -0.067306 0.721582 -2.92882
F 0.0181799 0.00869335 2.93703
