12
Coordinates from XML
N -0.796497525847 -0.806886972574 -0.692975073563
C 0.171796606072 0.395110613504 -0.786304520145
H -1.17023188961 -0.908415241041 0.25349354307
H -0.31518581787 -1.674051828257 -0.943520896458
H -1.581465551412 -0.68458209724 -1.337394833422
H 0.952034187085 0.205564742741 -0.052504557104
H -0.40287875885 1.264305623813 -0.474130117556
C 0.720087982006 0.535020344968 -2.196908824371
H 1.293034056581 -0.340797715085 -2.505402753389
H 1.396591344472 1.388777835998 -2.228245968611
H -0.067305952044 0.721581528998 -2.928817238258
F 0.018179880053 0.008693348711 2.937026250927
