12
Coordinates from XML
N -0.563829 0.808065 -1.58578
C -0.12519 0.188071 -0.238816
H -1.13801 1.64164 -1.43996
H -1.10795 0.133714 -2.12946
H 0.253736 1.07357 -2.14031
H -1.04411 -0.0326551 0.299733
H 0.413031 0.972883 0.288055
C 0.726828 -1.04928 -0.469077
H 0.182639 -1.83168 -1.0003
H 1.01853 -1.46026 0.497128
H 1.64531 -0.822279 -1.01253
F 0.0237261 -0.0343833 1.96806
