12
Coordinates from XML
N -0.563829 0.808065 -1.65002
C -0.12519 0.188071 -0.303055
H -1.13801 1.64164 -1.5042
H -1.10795 0.133714 -2.1937
H 0.253736 1.07357 -2.20455
H -1.04411 -0.0326551 0.235494
H 0.413031 0.972883 0.223816
C 0.726828 -1.04928 -0.533316
H 0.182639 -1.83168 -1.06454
H 1.01853 -1.46026 0.432889
H 1.64531 -0.822279 -1.07677
F 0.0237261 -0.0343833 2.12382
