12
Coordinates from XML
N -0.563829 0.808065 -1.71425
C -0.12519 0.188071 -0.367294
H -1.13801 1.64164 -1.56844
H -1.10795 0.133714 -2.25793
H 0.253736 1.07357 -2.26879
H -1.04411 -0.0326551 0.171255
H 0.413031 0.972883 0.159577
C 0.726828 -1.04928 -0.597555
H 0.182639 -1.83168 -1.12878
H 1.01853 -1.46026 0.36865
H 1.64531 -0.822279 -1.14101
F 0.0237261 -0.0343833 2.27958
