12
Coordinates from XML
N -0.563829 0.808065 -1.80185
C -0.12519 0.188071 -0.454892
H -1.13801 1.64164 -1.65603
H -1.10795 0.133714 -2.34553
H 0.253736 1.07357 -2.35638
H -1.04411 -0.0326551 0.0836565
H 0.413031 0.972883 0.0719785
C 0.726828 -1.04928 -0.685154
H 0.182639 -1.83168 -1.21638
H 1.01853 -1.46026 0.281052
H 1.64531 -0.822279 -1.22861
F 0.0237261 -0.0343833 2.49199
