12
Coordinates from XML
N -0.563829 0.808065 -1.92449
C -0.12519 0.188071 -0.57753
H -1.13801 1.64164 -1.77867
H -1.10795 0.133714 -2.46817
H 0.253736 1.07357 -2.47902
H -1.04411 -0.0326551 -0.0389815
H 0.413031 0.972883 -0.0506595
C 0.726828 -1.04928 -0.807792
H 0.182639 -1.83168 -1.33902
H 1.01853 -1.46026 0.158414
H 1.64531 -0.822279 -1.35125
F 0.0237261 -0.0343833 2.78935
