12
Coordinates from XML
N -0.56382932769 0.808065387558 -1.982890600581
C -0.125189775253 0.188070897448 -0.63592947133
H -1.138007849194 1.641638369321 -1.837071137731
H -1.107954874281 0.133714169279 -2.526569623986
H 0.253735916952 1.073571516287 -2.537420741284
H -1.044105333636 -0.032655053722 -0.097380535068
H 0.413031030646 0.972882960406 -0.109058530246
C 0.726828298627 -1.049284219874 -0.866190593542
H 0.182639144687 -1.831684633792 -1.397416289418
H 1.018529885611 -1.46025656338 0.100014657195
H 1.645309701673 -0.822279027979 -1.409646906593
F 0.023726074377 -0.034383290768 2.930949111583
