12
Coordinates from XML
N -0.563829 0.808065 -1.98289
C -0.12519 0.188071 -0.635929
H -1.13801 1.64164 -1.83707
H -1.10795 0.133714 -2.52657
H 0.253736 1.07357 -2.53742
H -1.04411 -0.0326551 -0.0973805
H 0.413031 0.972883 -0.109059
C 0.726828 -1.04928 -0.866191
H 0.182639 -1.83168 -1.39742
H 1.01853 -1.46026 0.100015
H 1.64531 -0.822279 -1.40965
F 0.0237261 -0.0343833 2.93095
