12
Coordinates from XML
N 0.290454 -0.17022 0.0447794
C 0.317185 -0.420837 -1.48086
H 0.902992 -0.823926 0.537988
H -0.658949 -0.281874 0.408888
H 0.599177 0.781827 0.256218
H 0.0115972 -1.45582 -1.61717
H 1.35771 -0.317508 -1.78058
C -0.596697 0.556358 -2.20191
H -1.63836 0.44992 -1.89516
H -0.554557 0.353402 -3.27176
H -0.287259 1.59281 -2.05876
F -0.0233371 0.024012 2.79288
