12
Coordinates from XML
N 0.290454288132 -0.170219923116 -0.0544989767
C 0.317185469705 -0.42083744277 -1.580139304962
H 0.902991908459 -0.823925651666 0.438709590107
H -0.658949247886 -0.281874134642 0.309609962193
H 0.599177289585 0.781827313651 0.156939614682
H 0.011597218414 -1.455823158545 -1.716451793462
H 1.35771256505 -0.31750794908 -1.879857469596
C -0.596697199406 0.55635758107 -2.301187861903
H -1.638363478438 0.449919642736 -1.9944382713
H -0.554557243605 0.353402295636 -3.371035535998
H -0.287259475232 1.592813686661 -2.158040227887
F -0.023337082293 0.02401202363 3.033600884107
