12
Coordinates from XML
N -0.991932 -0.660116 -0.535003
C 0.171225 0.355205 -0.449625
H -1.51098 -0.703118 0.34507
H -0.635203 -1.59575 -0.744133
H -1.64227 -0.397066 -1.2795
H 0.792442 0.0259943 0.380357
H -0.285084 1.3086 -0.192666
C 0.934355 0.409585 -1.7629
H 1.38731 -0.55006 -2.01668
H 1.74448 1.13241 -1.66926
H 0.305379 0.73709 -2.59212
F 0.0245202 0.00570615 2.20396
