12
Coordinates from XML
N -0.991932 -0.660116 -0.552523
C 0.171225 0.355205 -0.467145
H -1.51098 -0.703118 0.32755
H -0.635203 -1.59575 -0.761653
H -1.64227 -0.397066 -1.29702
H 0.792442 0.0259943 0.362837
H -0.285084 1.3086 -0.210185
C 0.934355 0.409585 -1.78042
H 1.38731 -0.55006 -2.0342
H 1.74448 1.13241 -1.68678
H 0.305379 0.73709 -2.60964
F 0.0245202 0.00570615 2.24644
