12
Coordinates from XML
N -0.991932488072 -0.660116091795 -0.587562580588
C 0.171225038217 0.355205178576 -0.502184624341
H -1.510979197507 -0.70311796518 0.292511029138
H -0.635203098791 -1.595753783177 -0.796692468041
H -1.642268019693 -0.397066313746 -1.332061486677
H 0.792442122993 0.025994256735 0.327797428615
H -0.285083510873 1.308598454594 -0.245224767756
C 0.934355383935 0.409584899716 -1.815454433008
H 1.387308880189 -0.550059839692 -2.069241917501
H 1.744478123143 1.132409334784 -1.721824026549
H 0.305378518459 0.737089541908 -2.644678782097
F 0.024520159273 0.005706152066 2.33139848829
