12
Coordinates from XML
N -0.991932 -0.660116 -0.587563
C 0.171225 0.355205 -0.502185
H -1.51098 -0.703118 0.292511
H -0.635203 -1.59575 -0.796692
H -1.64227 -0.397066 -1.33206
H 0.792442 0.0259943 0.327797
H -0.285084 1.3086 -0.245225
C 0.934355 0.409585 -1.81545
H 1.38731 -0.55006 -2.06924
H 1.74448 1.13241 -1.72182
H 0.305379 0.73709 -2.64468
F 0.0245202 0.00570615 2.3314
