12
Coordinates from XML
N -0.268596 0.803036 -1.82876
C 0.12855 0.339827 -0.407907
H -0.306199 1.82324 -1.88841
H -1.18758 0.431896 -2.08201
H 0.40839 0.465277 -2.51725
H -0.615353 0.765373 0.261928
H 1.09237 0.800919 -0.203814
C 0.180713 -1.17727 -0.332403
H -0.787999 -1.63408 -0.540757
H 0.462874 -1.46961 0.678767
H 0.926106 -1.59847 -1.00876
F 0.00302507 -0.0408964 2.20278
