12
Coordinates from XML
N -0.268596408088 0.803035902997 -1.828757321211
C 0.128549747193 0.339827225957 -0.407907307556
H -0.306199468748 1.823239850782 -1.88840730847
H -1.187576891202 0.43189636325 -2.08201483883
H 0.408389728053 0.465277312448 -2.51724771081
H -0.615353273209 0.76537345638 0.261928051107
H 1.092367483535 0.80091934062 -0.2038141143
C 0.180712935052 -1.17726891697 -0.33240257968
H -0.787998630623 -1.634083456861 -0.540756513162
H 0.46287435225 -1.469608835961 0.678766533741
H 0.926106206201 -1.598468289036 -1.008763555329
F 0.003025070947 -0.040896367854 2.202783939591
