12
Coordinates from XML
N 0.538774399949 0.800710918673 -0.275430575332
C -0.230160984746 -0.459594337722 -0.735290492384
H 0.648652131108 0.816799734872 0.741159922566
H 0.039340996622 1.647394053644 -0.558455311238
H 1.469083658447 0.826752072911 -0.699997004085
H -1.186100305444 -0.429751158637 -0.217168783215
H 0.343764480005 -1.307824592173 -0.368794114544
C -0.386855075592 -0.471544534621 -2.247013623011
H -0.960804456881 0.382929606657 -2.608882428699
H -0.930971484677 -1.370048803309 -2.537130982093
H 0.575144000292 -0.498053047678 -2.761152987208
F -0.007284785538 -0.005657280671 2.564713056433
