12
Coordinates from XML
N 0.538774399949 0.800710918673 -0.310470008299
C -0.230160984746 -0.459594337722 -0.770329925352
H 0.648652131108 0.816799734872 0.706120489598
H 0.039340996622 1.647394053644 -0.593494744205
H 1.469083658447 0.826752072911 -0.735036437052
H -1.186100305444 -0.429751158637 -0.252208216183
H 0.343764480005 -1.307824592173 -0.403833547511
C -0.386855075592 -0.471544534621 -2.282053055978
H -0.960804456881 0.382929606657 -2.643921861667
H -0.930971484677 -1.370048803309 -2.572170415061
H 0.575144000292 -0.498053047678 -2.796192420176
F -0.007284785538 -0.005657280671 2.649673623465
