12
Coordinates from XML
N 0.538774 0.800711 -0.31047
C -0.230161 -0.459594 -0.77033
H 0.648652 0.8168 0.70612
H 0.039341 1.64739 -0.593495
H 1.46908 0.826752 -0.735036
H -1.1861 -0.429751 -0.252208
H 0.343764 -1.30782 -0.403834
C -0.386855 -0.471545 -2.28205
H -0.960804 0.38293 -2.64392
H -0.930971 -1.37005 -2.57217
H 0.575144 -0.498053 -2.79619
F -0.00728479 -0.00565728 2.64967
