12
Coordinates from XML
N 0.538774399949 0.800710918673 -0.339669535772
C -0.230160984746 -0.459594337722 -0.799529452825
H 0.648652131108 0.816799734872 0.676920962125
H 0.039340996622 1.647394053644 -0.622694271678
H 1.469083658447 0.826752072911 -0.764235964525
H -1.186100305444 -0.429751158637 -0.281407743656
H 0.343764480005 -1.307824592173 -0.433033074984
C -0.386855075592 -0.471544534621 -2.311252583451
H -0.960804456881 0.382929606657 -2.67312138914
H -0.930971484677 -1.370048803309 -2.601369942534
H 0.575144000292 -0.498053047678 -2.825391947649
F -0.007284785538 -0.005657280671 2.720474095992
