12
Coordinates from XML
N 0.538774399949 0.800710918673 -0.368869063245
C -0.230160984746 -0.459594337722 -0.828728980298
H 0.648652131108 0.816799734872 0.647721434653
H 0.039340996622 1.647394053644 -0.651893799151
H 1.469083658447 0.826752072911 -0.793435491998
H -1.186100305444 -0.429751158637 -0.310607271129
H 0.343764480005 -1.307824592173 -0.462232602457
C -0.386855075592 -0.471544534621 -2.340452110924
H -0.960804456881 0.382929606657 -2.702320916613
H -0.930971484677 -1.370048803309 -2.630569470006
H 0.575144000292 -0.498053047678 -2.854591475122
F -0.007284785538 -0.005657280671 2.791274568519
