12
Coordinates from XML
N 0.538774399949 0.800710918673 -0.433108023686
C -0.230160984746 -0.459594337722 -0.892967940738
H 0.648652131108 0.816799734872 0.583482474212
H 0.039340996622 1.647394053644 -0.716132759592
H 1.469083658447 0.826752072911 -0.857674452439
H -1.186100305444 -0.429751158637 -0.374846231569
H 0.343764480005 -1.307824592173 -0.526471562898
C -0.386855075592 -0.471544534621 -2.404691071364
H -0.960804456881 0.382929606657 -2.766559877053
H -0.930971484677 -1.370048803309 -2.694808430447
H 0.575144000292 -0.498053047678 -2.918830435562
F -0.007284785538 -0.005657280671 2.947035608079
