12
Coordinates from XML
N -0.755871591868 -0.084996700567 0.020441347507
C -0.360945585658 0.11182848806 -1.46158274244
H -1.767658298348 -0.007549066845 0.147239339798
H -0.303189514181 0.619690138429 0.607727012259
H -0.46003116279 -1.007139764444 0.349896535438
H -0.738195483215 1.092849184608 -1.741657042305
H -0.905847018698 -0.647921170439 -2.017521123294
C 1.144257113256 -0.005395734694 -1.636585558887
H 1.68540705486 0.75731784477 -1.074519976123
H 1.388183874838 0.137594789001 -2.689008532147
H 1.517204388077 -0.990181223528 -1.350942284383
F 0.040301252389 -0.002173019605 2.353953361402
