12
Coordinates from XML
N 0.283614 0.0370502 0.13369
C -0.359412 -0.493257 -1.16877
H 0.042657 -0.554011 0.932673
H -0.0371023 0.988553 0.329117
H 1.30254 0.0596598 0.0459652
H -1.43072 -0.518483 -0.982139
H 0.00279484 -1.5123 -1.28523
C 0.00592762 0.39335 -2.34794
H -0.357489 1.41467 -2.22415
H -0.461482 -0.00712332 -3.24722
H 1.08177 0.417383 -2.52812
F 0.00664552 0.0204994 2.59799
