12
Coordinates from XML
N 0.283614 0.0370502 0.12201
C -0.359412 -0.493257 -1.18045
H 0.042657 -0.554011 0.920993
H -0.0371023 0.988553 0.317438
H 1.30254 0.0596598 0.0342854
H -1.43072 -0.518483 -0.993819
H 0.00279484 -1.5123 -1.29691
C 0.00592762 0.39335 -2.35962
H -0.357489 1.41467 -2.23583
H -0.461482 -0.00712332 -3.2589
H 1.08177 0.417383 -2.5398
F 0.00664552 0.0204994 2.62631
