12
Coordinates from XML
N 0.28361419564 0.03705021819 0.122010118066
C -0.359412178148 -0.493256873156 -1.180446629747
H 0.042657002312 -0.554011413677 0.920993212096
H -0.037102346959 0.988553269477 0.317437596257
H 1.302536807139 0.059659763271 0.034285373352
H -1.430717204179 -0.518483203079 -0.993818981244
H 0.002794839998 -1.512299479998 -1.296906236779
C 0.005927620888 0.393350162831 -2.359623233976
H -0.357489264388 1.414671369035 -2.23583250662
H -0.461482160613 -0.007123322135 -3.258895024662
H 1.081773413334 0.417383447304 -2.539796598258
F 0.006645520457 0.020499448915 2.626309735317
