12
Coordinates from XML
N 0.28361419564 0.03705021819 0.098650496088
C -0.359412178148 -0.493256873156 -1.203806251725
H 0.042657002312 -0.554011413677 0.897633590118
H -0.037102346959 0.988553269477 0.294077974279
H 1.302536807139 0.059659763271 0.010925751374
H -1.430717204179 -0.518483203079 -1.017178603222
H 0.002794839998 -1.512299479998 -1.320265858757
C 0.005927620888 0.393350162831 -2.382982855955
H -0.357489264388 1.414671369035 -2.259192128598
H -0.461482160613 -0.007123322135 -3.282254646641
H 1.081773413334 0.417383447304 -2.563156220236
F 0.006645520457 0.020499448915 2.682950113339
