12
Coordinates from XML
N 0.283614 0.0370502 0.0752909
C -0.359412 -0.493257 -1.22717
H 0.042657 -0.554011 0.874274
H -0.0371023 0.988553 0.270718
H 1.30254 0.0596598 -0.0124339
H -1.43072 -0.518483 -1.04054
H 0.00279484 -1.5123 -1.34363
C 0.00592762 0.39335 -2.40634
H -0.357489 1.41467 -2.28255
H -0.461482 -0.00712332 -3.30561
H 1.08177 0.417383 -2.58652
F 0.00664552 0.0204994 2.73959
