12
Coordinates from XML
N 0.28361419564 0.03705021819 0.07529087411
C -0.359412178148 -0.493256873156 -1.227165873704
H 0.042657002312 -0.554011413677 0.87427396814
H -0.037102346959 0.988553269477 0.270718352301
H 1.302536807139 0.059659763271 -0.012433870605
H -1.430717204179 -0.518483203079 -1.040538225201
H 0.002794839998 -1.512299479998 -1.343625480736
C 0.005927620888 0.393350162831 -2.406342477933
H -0.357489264388 1.414671369035 -2.282551750577
H -0.461482160613 -0.007123322135 -3.305614268619
H 1.081773413334 0.417383447304 -2.586515842214
F 0.006645520457 0.020499448915 2.73959049136
