12
Coordinates from XML
N 0.283614 0.0370502 0.0402514
C -0.359412 -0.493257 -1.26221
H 0.042657 -0.554011 0.839235
H -0.0371023 0.988553 0.235679
H 1.30254 0.0596598 -0.0474733
H -1.43072 -0.518483 -1.07558
H 0.00279484 -1.5123 -1.37866
C 0.00592762 0.39335 -2.44138
H -0.357489 1.41467 -2.31759
H -0.461482 -0.00712332 -3.34065
H 1.08177 0.417383 -2.62156
F 0.00664552 0.0204994 2.82455
