12
Coordinates from XML
N 0.28361419564 0.03705021819 0.028571630153
C -0.359412178148 -0.493256873156 -1.273885117661
H 0.042657002312 -0.554011413677 0.827554724183
H -0.037102346959 0.988553269477 0.223999108344
H 1.302536807139 0.059659763271 -0.059153114561
H -1.430717204179 -0.518483203079 -1.087257469157
H 0.002794839998 -1.512299479998 -1.390344724693
C 0.005927620888 0.393350162831 -2.45306172189
H -0.357489264388 1.414671369035 -2.329270994534
H -0.461482160613 -0.007123322135 -3.352333512576
H 1.081773413334 0.417383447304 -2.633235086171
F 0.006645520457 0.020499448915 2.852871247403
