12
Coordinates from XML
N 0.0884065 0.213328 -2.32359
C 0.426787 0.35176 -0.821117
H 0.688918 0.812314 -2.8949
H -0.885191 0.475314 -2.49645
H 0.213688 -0.754362 -2.63066
H 0.302861 1.40624 -0.584747
H 1.47857 0.0903423 -0.728293
C -0.472106 -0.542748 0.016649
H -1.52582 -0.277618 -0.082723
H -0.208148 -0.421884 1.06701
H -0.345884 -1.59872 -0.227218
F -0.0216294 -0.0223665 2.67581
