12
Coordinates from XML
N 0.088406508897 0.213328401452 -2.352793891571
C 0.426786546301 0.35175984123 -0.85031667204
H 0.688917548921 0.812314278727 -2.924099953032
H -0.885191012994 0.47531449341 -2.525652821126
H 0.213688118403 -0.754362036827 -2.659860406465
H 0.302860995034 1.406241800668 -0.613946283306
H 1.478570335379 0.090342301371 -0.75749248602
C -0.472105569542 -0.542747604781 -0.012550557846
H -1.525824842252 -0.277617642454 -0.111922487084
H -0.208148032734 -0.421883801402 1.0378108225
H -0.345884266496 -1.598721636448 -0.256417808999
F -0.021629424644 -0.02236650955 2.746614314092
