12
Coordinates from XML
N 0.0884065 0.213328 -2.41119
C 0.426787 0.35176 -0.908716
H 0.688918 0.812314 -2.9825
H -0.885191 0.475314 -2.58405
H 0.213688 -0.754362 -2.71826
H 0.302861 1.40624 -0.672345
H 1.47857 0.0903423 -0.815892
C -0.472106 -0.542748 -0.0709496
H -1.52582 -0.277618 -0.170322
H -0.208148 -0.421884 0.979412
H -0.345884 -1.59872 -0.314817
F -0.0216294 -0.0223665 2.88822
