12
Coordinates from XML
N 0.088406508897 0.213328401452 -2.428712663001
C 0.426786546301 0.35175984123 -0.926235443469
H 0.688917548921 0.812314278727 -3.000018724462
H -0.885191012994 0.47531449341 -2.601571592555
H 0.213688118403 -0.754362036827 -2.735779177895
H 0.302860995034 1.406241800668 -0.689865054736
H 1.478570335379 0.090342301371 -0.83341125745
C -0.472105569542 -0.542747604781 -0.088469329276
H -1.525824842252 -0.277617642454 -0.187841258514
H -0.208148032734 -0.421883801402 0.96189205107
H -0.345884266496 -1.598721636448 -0.332336580429
F -0.021629424644 -0.02236650955 2.930695542662
