12
Coordinates from XML
N 0.088406508897 0.213328401452 -2.44039247399
C 0.426786546301 0.35175984123 -0.937915254458
H 0.688917548921 0.812314278727 -3.011698535451
H -0.885191012994 0.47531449341 -2.613251403545
H 0.213688118403 -0.754362036827 -2.747458988884
H 0.302860995034 1.406241800668 -0.701544865725
H 1.478570335379 0.090342301371 -0.845091068439
C -0.472105569542 -0.542747604781 -0.100149140265
H -1.525824842252 -0.277617642454 -0.199521069503
H -0.208148032734 -0.421883801402 0.950212240081
H -0.345884266496 -1.598721636448 -0.344016391418
F -0.021629424644 -0.02236650955 2.959015731673
