12
Coordinates from XML
N 0.0884065 0.213328 -2.45791
C 0.426787 0.35176 -0.955435
H 0.688918 0.812314 -3.02922
H -0.885191 0.475314 -2.63077
H 0.213688 -0.754362 -2.76498
H 0.302861 1.40624 -0.719065
H 1.47857 0.0903423 -0.862611
C -0.472106 -0.542748 -0.117669
H -1.52582 -0.277618 -0.217041
H -0.208148 -0.421884 0.932693
H -0.345884 -1.59872 -0.361536
F -0.0216294 -0.0223665 3.0015
