12
Coordinates from XML
N 0.0884065 0.213328 -2.46959
C 0.426787 0.35176 -0.967115
H 0.688918 0.812314 -3.0409
H -0.885191 0.475314 -2.64245
H 0.213688 -0.754362 -2.77666
H 0.302861 1.40624 -0.730744
H 1.47857 0.0903423 -0.874291
C -0.472106 -0.542748 -0.129349
H -1.52582 -0.277618 -0.228721
H -0.208148 -0.421884 0.921013
H -0.345884 -1.59872 -0.373216
F -0.0216294 -0.0223665 3.02982
