12
Coordinates from XML
N 0.0884065 0.213328 -2.48711
C 0.426787 0.35176 -0.984634
H 0.688918 0.812314 -3.05842
H -0.885191 0.475314 -2.65997
H 0.213688 -0.754362 -2.79418
H 0.302861 1.40624 -0.748264
H 1.47857 0.0903423 -0.89181
C -0.472106 -0.542748 -0.146868
H -1.52582 -0.277618 -0.24624
H -0.208148 -0.421884 0.903493
H -0.345884 -1.59872 -0.390736
F -0.0216294 -0.0223665 3.0723
