12
Coordinates from XML
N 0.0884065 0.213328 -2.50463
C 0.426787 0.35176 -1.00215
H 0.688918 0.812314 -3.07594
H -0.885191 0.475314 -2.67749
H 0.213688 -0.754362 -2.8117
H 0.302861 1.40624 -0.765784
H 1.47857 0.0903423 -0.90933
C -0.472106 -0.542748 -0.164388
H -1.52582 -0.277618 -0.26376
H -0.208148 -0.421884 0.885973
H -0.345884 -1.59872 -0.408255
F -0.0216294 -0.0223665 3.11478
