12
Coordinates from XML
N 0.0884065 0.213328 -2.54551
C 0.426787 0.35176 -1.04303
H 0.688918 0.812314 -3.11682
H -0.885191 0.475314 -2.71837
H 0.213688 -0.754362 -2.85258
H 0.302861 1.40624 -0.806663
H 1.47857 0.0903423 -0.950209
C -0.472106 -0.542748 -0.205267
H -1.52582 -0.277618 -0.304639
H -0.208148 -0.421884 0.845094
H -0.345884 -1.59872 -0.449135
F -0.0216294 -0.0223665 3.2139
