9
Coordinates from XML
N 0.030319 0.0455493 -1.22395
C -0.0347015 -0.0521568 -2.69487
H 1.00234 0.11764 -0.895758
H -0.38754 -0.779955 -0.774707
H -0.474429 0.873391 -0.880687
H 0.516104 -0.945583 -2.99485
H 0.421917 0.848401 -3.1099
H -1.08634 -0.125545 -2.9785
Cl -3.90795e-06 -5.87451e-06 1.75021
