9
Coordinates from XML
N 0.0456455 0.0219827 -1.27581
C -0.0522657 -0.0251827 -2.7474
H 0.206011 -0.913921 -0.880713
H -0.816565 0.392128 -0.854546
H 0.822064 0.623796 -0.970993
H -0.889892 -0.675781 -3.00565
H 0.888132 -0.424503 -3.13205
H -0.221439 0.99279 -3.10361
Cl -5.88674e-06 -2.83674e-06 1.79803
