9
Coordinates from XML
N 0.420988346343 -0.384935393924 -2.3985639289
C -0.482026674715 0.440728114233 -1.573806180806
H -0.085698338842 -1.157498184624 -2.850396948368
H 1.173379059481 -0.797929534111 -1.831797605839
H 0.863377894831 0.171623418699 -3.141835666207
H -0.917496966902 -0.203793325704 -0.807944399488
H -1.253974987823 0.848207069315 -2.22941102601
H 0.112346566614 1.238421278417 -1.124162270799
Cl -5.4290419e-05 4.9638365e-05 1.845993580999
