9
Coordinates from XML
N 0.543082128053 -0.419487328435 -1.91345346454
C -0.621818470466 0.480289377059 -2.017329235635
H 0.483291435415 -1.189835954127 -2.592221324688
H 0.611312220404 -0.83751121793 -0.976180456122
H 1.422211048838 0.083418468091 -2.09272197951
H -1.518291276584 -0.109669264544 -1.817649894965
H -0.638494441009 0.889576719502 -3.02924167914
H -0.499486271211 1.271924869687 -1.275627368415
Cl -7.0034958e-05 5.409412e-05 1.798115367244
