9
Coordinates from XML
N -0.0721625 -0.0650157 -1.25997
C 0.0826371 0.0744419 -2.72078
H 0.740317 0.317657 -0.75879
H -0.168268 -1.05167 -0.985805
H -0.906582 0.432651 -0.922339
H 0.980325 -0.472443 -3.01516
H 0.179299 1.13818 -2.94633
H -0.80671 -0.347686 -3.19263
Cl 9.30778e-06 8.38434e-06 1.7789
