9
Coordinates from XML
N -0.00454229 0.415517 -1.96671
C 0.00518939 -0.47576 -3.14268
H -0.558245 0.0154799 -1.19787
H -0.409707 1.33288 -2.19512
H 0.946974 0.577331 -1.61125
H -1.02768 -0.607382 -3.47047
H 0.444349 -1.42729 -2.83694
H 0.60561 0.00229158 -3.91904
Cl 5.84092e-07 -5.35845e-05 2.30497
