9
Coordinates from XML
N -0.028403510262 0.292763435212 -2.834211644232
C 0.032533281014 -0.33520977071 -1.50030083008
H 0.598130301261 -0.179026318754 -3.499499214439
H 0.249691255418 1.282235921322 -2.795643386117
H -0.979535271824 0.253612452718 -3.223742994342
H 1.061497096114 -0.261748912167 -1.143336546886
H -0.272224259235 -1.377956364238 -1.607834049813
H -0.650406156665 0.207720799621 -0.844104441593
Cl 3.664597e-06 -3.7754475e-05 2.027749247795
