9
Coordinates from XML
N 1.59444580613 0.242428406689 -1.047803672285
C 2.75544580613 0.100428406689 -0.176803672285
H 1.48544580613 -0.474571593311 -1.767803672285
H 1.44644580613 1.172428406689 -1.445803672285
H 0.70744580613 0.109428406689 -0.473803672285
H 3.65144580613 0.240428406689 -0.783803672285
H 2.73444580613 -0.901571593311 0.257196327715
H 2.69244580613 0.863428406689 0.602196327715
Cl -1.950583965834 -0.160638789393 0.584354347451
