9
Coordinates from XML
N 1.600407688516 0.243034159445 -1.050177089516
C 2.761407688516 0.101034159445 -0.179177089516
H 1.491407688516 -0.473965840555 -1.770177089516
H 1.452407688516 1.173034159445 -1.448177089516
H 0.713407688516 0.110034159445 -0.476177089516
H 3.657407688516 0.241034159445 -0.786177089516
H 2.740407688516 -0.900965840555 0.254822910484
H 2.698407688516 0.864034159445 0.599822910484
Cl -1.956048213588 -0.161193980341 0.586529657014
