9
Coordinates from XML
N 1.62425521806 0.245457170468 -1.059670758437
C 2.78525521806 0.103457170468 -0.188670758437
H 1.51525521806 -0.471542829532 -1.779670758437
H 1.47625521806 1.175457170468 -1.457670758437
H 0.73725521806 0.112457170468 -0.485670758437
H 3.68125521806 0.243457170468 -0.795670758437
H 2.76425521806 -0.898542829532 0.245329241563
H 2.72225521806 0.866457170468 0.590329241563
Cl -1.977905204605 -0.163414744134 0.595230895268
