9
Coordinates from XML
N 1.636178982832 0.24666867598 -1.064417592898
C 2.797178982832 0.10466867598 -0.193417592898
H 1.527178982832 -0.47033132402 -1.784417592898
H 1.488178982832 1.17666867598 -1.462417592898
H 0.749178982832 0.11366867598 -0.490417592898
H 3.693178982832 0.24466867598 -0.800417592898
H 2.776178982832 -0.89733132402 0.240582407102
H 2.734178982832 0.86766867598 0.585582407102
Cl -1.988833700113 -0.164525126031 0.599581514395
