9
Coordinates from XML
N 1.648102747604 0.247880181491 -1.069164427358
C 2.809102747604 0.105880181491 -0.198164427358
H 1.539102747604 -0.469119818509 -1.789164427358
H 1.500102747604 1.177880181491 -1.467164427358
H 0.761102747604 0.114880181491 -0.495164427358
H 3.705102747604 0.245880181491 -0.805164427358
H 2.788102747604 -0.896119818509 0.235835572642
H 2.746102747604 0.868880181491 0.580835572642
Cl -1.999762195622 -0.165635507927 0.603932133522
