9
Coordinates from XML
N 1.65406462999 0.248485934247 -1.071537844589
C 2.81506462999 0.106485934247 -0.200537844589
H 1.54506462999 -0.468514065753 -1.791537844589
H 1.50606462999 1.178485934247 -1.469537844589
H 0.76706462999 0.115485934247 -0.497537844589
H 3.71106462999 0.246485934247 -0.807537844589
H 2.79406462999 -0.895514065753 0.233462155411
H 2.75206462999 0.869485934247 0.578462155411
Cl -2.005226443376 -0.166190698876 0.606107443085
