9
Coordinates from XML
N 1.671950277148 0.250303192515 -1.078658096279
C 2.832950277148 0.108303192515 -0.207658096279
H 1.562950277148 -0.466696807485 -1.798658096279
H 1.523950277148 1.180303192515 -1.476658096279
H 0.784950277148 0.117303192515 -0.504658096279
H 3.728950277148 0.248303192515 -0.814658096279
H 2.811950277148 -0.893696807485 0.226341903721
H 2.769950277148 0.871303192515 0.571341903721
Cl -2.021619186639 -0.16785627172 0.612633371776
