9
Coordinates from XML
N 1.677912159534 0.25090894527 -1.08103151351
C 2.838912159534 0.10890894527 -0.21003151351
H 1.568912159534 -0.46609105473 -1.80103151351
H 1.529912159534 1.18090894527 -1.47903151351
H 0.790912159534 0.11790894527 -0.50703151351
H 3.734912159534 0.24890894527 -0.81703151351
H 2.817912159534 -0.89309105473 0.22396848649
H 2.775912159534 0.87190894527 0.56896848649
Cl -2.027083434393 -0.168411462669 0.614808681339
