9
Coordinates from XML
N 1.68387404192 0.251514698026 -1.08340493074
C 2.84487404192 0.109514698026 -0.21240493074
H 1.57487404192 -0.465485301974 -1.80340493074
H 1.53587404192 1.181514698026 -1.48140493074
H 0.79687404192 0.118514698026 -0.50940493074
H 3.74087404192 0.249514698026 -0.81940493074
H 2.82387404192 -0.892485301974 0.22159506926
H 2.78187404192 0.872514698026 0.56659506926
Cl -2.032547682147 -0.168966653617 0.616983990903
