9
Coordinates from XML
N 1.689835924306 0.252120450782 -1.08577834797
C 2.850835924306 0.110120450782 -0.21477834797
H 1.580835924306 -0.464879549218 -1.80577834797
H 1.541835924306 1.182120450782 -1.48377834797
H 0.802835924306 0.119120450782 -0.51177834797
H 3.746835924306 0.250120450782 -0.82177834797
H 2.829835924306 -0.891879549218 0.21922165203
H 2.787835924306 0.873120450782 0.56422165203
Cl -2.038011929901 -0.169521844565 0.619159300466
