9
Coordinates from XML
N 1.707721571464 0.253937709049 -1.092898599661
C 2.868721571464 0.111937709049 -0.221898599661
H 1.598721571464 -0.463062290951 -1.812898599661
H 1.559721571464 1.183937709049 -1.490898599661
H 0.820721571464 0.120937709049 -0.518898599661
H 3.764721571464 0.251937709049 -0.828898599661
H 2.847721571464 -0.890062290951 0.212101400339
H 2.805721571464 0.874937709049 0.557101400339
Cl -2.054404673164 -0.17118741741 0.625685229157
