9
Coordinates from XML
N 1.719645336236 0.255149214561 -1.097645434122
C 2.880645336236 0.113149214561 -0.226645434122
H 1.610645336236 -0.461850785439 -1.817645434122
H 1.571645336236 1.185149214561 -1.495645434122
H 0.832645336236 0.122149214561 -0.523645434122
H 3.776645336236 0.253149214561 -0.833645434122
H 2.859645336236 -0.888850785439 0.207354565878
H 2.817645336236 0.876149214561 0.552354565878
Cl -2.065333168673 -0.172297799307 0.630035848284
