9
Coordinates from XML
N 1.749454748165 0.25817797834 -1.109512520273
C 2.910454748165 0.11617797834 -0.238512520273
H 1.640454748165 -0.45882202166 -1.829512520273
H 1.601454748165 1.18817797834 -1.507512520273
H 0.862454748165 0.12517797834 -0.535512520273
H 3.806454748165 0.25617797834 -0.845512520273
H 2.889454748165 -0.88582202166 0.195487479727
H 2.847454748165 0.87917797834 0.540487479727
Cl -2.092654407444 -0.175073754048 0.640912396101
