9
Coordinates from XML
N 1.755416630551 0.258783731096 -1.111885937504
C 2.916416630551 0.116783731096 -0.240885937504
H 1.646416630551 -0.458216268904 -1.831885937504
H 1.607416630551 1.188783731096 -1.509885937504
H 0.868416630551 0.125783731096 -0.537885937504
H 3.812416630551 0.256783731096 -0.847885937504
H 2.895416630551 -0.885216268904 0.193114062496
H 2.853416630551 0.879783731096 0.538114062496
Cl -2.098118655198 -0.175628944996 0.643087705664
