9
Coordinates from XML
N 1.552970719575 0.238214360462 -1.031292497008
C 2.713970719575 0.096214360462 -0.160292497008
H 1.443970719575 -0.478785639538 -1.751292497008
H 1.404970719575 1.168214360462 -1.429292497008
H 0.665970719575 0.105214360462 -0.457292497008
H 3.609970719575 0.236214360462 -0.767292497008
H 2.692970719575 -0.905785639538 0.273707502992
H 2.650970719575 0.859214360462 0.618707502992
Cl -1.912570779076 -0.156776486995 0.569221349751
