9
Coordinates from XML
N 1.563939550804 0.23932884064 -1.03565917373
C 2.724939550804 0.09732884064 -0.16465917373
H 1.454939550804 -0.47767115936 -1.75565917373
H 1.415939550804 1.16932884064 -1.43365917373
H 0.676939550804 0.10632884064 -0.46165917373
H 3.620939550804 0.23732884064 -0.77165917373
H 2.703939550804 -0.90467115936 0.26934082627
H 2.661939550804 0.86032884064 0.61434082627
Cl -1.922624048754 -0.157797942203 0.573223542671
