9
Coordinates from XML
N 1.574908382034 0.240443320819 -1.040025850453
C 2.735908382034 0.098443320819 -0.169025850453
H 1.465908382034 -0.476556679181 -1.760025850453
H 1.426908382034 1.170443320819 -1.438025850453
H 0.687908382034 0.107443320819 -0.466025850453
H 3.631908382034 0.238443320819 -0.776025850453
H 2.714908382034 -0.903556679181 0.264974149547
H 2.672908382034 0.861443320819 0.609974149547
Cl -1.932677318432 -0.158819397411 0.577225735591
