9
Coordinates from XML
N 1.591361628878 0.242115041086 -1.046575865536
C 2.752361628878 0.100115041086 -0.175575865536
H 1.482361628878 -0.474884958914 -1.766575865536
H 1.443361628878 1.172115041086 -1.444575865536
H 0.704361628878 0.109115041086 -0.472575865536
H 3.648361628878 0.240115041086 -0.782575865536
H 2.731361628878 -0.901884958914 0.258424134464
H 2.689361628878 0.863115041086 0.603424134464
Cl -1.947757222948 -0.160351580222 0.583229024971
