9
Coordinates from XML
N 1.635236953797 0.2465729618 -1.064042572426
C 2.796236953797 0.1045729618 -0.193042572426
H 1.526236953797 -0.4704270382 -1.784042572426
H 1.487236953797 1.1765729618 -1.462042572426
H 0.748236953797 0.1135729618 -0.490042572426
H 3.692236953797 0.2445729618 -0.800042572426
H 2.775236953797 -0.8974270382 0.240957427574
H 2.733236953797 0.8675729618 0.585957427574
Cl -1.987970301659 -0.164437401054 0.59923779665
