9
Coordinates from XML
N 1.646205785026 0.247687441978 -1.068409249149
C 2.807205785026 0.105687441978 -0.197409249149
H 1.537205785026 -0.469312558022 -1.788409249149
H 1.498205785026 1.177687441978 -1.466409249149
H 0.759205785026 0.114687441978 -0.494409249149
H 3.703205785026 0.245687441978 -0.804409249149
H 2.786205785026 -0.896312558022 0.236590750851
H 2.744205785026 0.868687441978 0.581590750851
Cl -1.998023571336 -0.165458856262 0.60323998957
