9
Coordinates from XML
N 1.668143447486 0.249916402335 -1.077142602593
C 2.829143447486 0.107916402335 -0.206142602593
H 1.559143447486 -0.467083597665 -1.797142602593
H 1.520143447486 1.179916402335 -1.475142602593
H 0.781143447486 0.116916402335 -0.503142602593
H 3.725143447486 0.247916402335 -0.813142602593
H 2.808143447486 -0.894083597665 0.227857397407
H 2.766143447486 0.870916402335 0.572857397407
Cl -2.018130110692 -0.167501766678 0.611244375409
