9
Coordinates from XML
N 1.6736278631 0.250473642424 -1.079325940955
C 2.8346278631 0.108473642424 -0.208325940955
H 1.5646278631 -0.466526357576 -1.799325940955
H 1.5256278631 1.180473642424 -1.477325940955
H 0.7866278631 0.117473642424 -0.505325940955
H 3.7306278631 0.248473642424 -0.815325940955
H 2.8136278631 -0.893526357576 0.225674059045
H 2.7716278631 0.871473642424 0.570674059045
Cl -2.023156745531 -0.168012494282 0.613245471869
