9
Coordinates from XML
N 1.68459669433 0.251588122603 -1.083692617677
C 2.84559669433 0.109588122603 -0.212692617677
H 1.57559669433 -0.465411877397 -1.803692617677
H 1.53659669433 1.181588122603 -1.481692617677
H 0.79759669433 0.118588122603 -0.509692617677
H 3.74159669433 0.249588122603 -0.819692617677
H 2.82459669433 -0.892411877397 0.221307382323
H 2.78259669433 0.872588122603 0.566307382323
Cl -2.033210015208 -0.169033949489 0.617247664789
