9
Coordinates from XML
N 1.722987603634 0.255488803227 -1.098975986206
C 2.883987603634 0.113488803227 -0.227975986206
H 1.613987603634 -0.461511196773 -1.818975986206
H 1.574987603634 1.185488803227 -1.496975986206
H 0.835987603634 0.122488803227 -0.524975986206
H 3.779987603634 0.253488803227 -0.834975986206
H 2.862987603634 -0.888511196773 0.206024013794
H 2.820987603634 0.876488803227 0.551024013794
Cl -2.06839645908 -0.172609042717 0.631255340009
