9
Coordinates from XML
N 1.728472019249 0.256046043316 -1.101159324567
C 2.889472019249 0.114046043316 -0.230159324567
H 1.619472019249 -0.460953956684 -1.821159324567
H 1.580472019249 1.186046043316 -1.499159324567
H 0.841472019249 0.123046043316 -0.527159324567
H 3.785472019249 0.254046043316 -0.837159324567
H 2.868472019249 -0.887953956684 0.203840675433
H 2.826472019249 0.877046043316 0.548840675433
Cl -2.073423093919 -0.173119770321 0.633256436468
