9
Coordinates from XML
N 1.739440850478 0.257160523495 -1.105526001289
C 2.900440850478 0.115160523495 -0.234526001289
H 1.630440850478 -0.459839476505 -1.825526001289
H 1.591440850478 1.187160523495 -1.503526001289
H 0.852440850478 0.124160523495 -0.531526001289
H 3.796440850478 0.255160523495 -0.841526001289
H 2.879440850478 -0.886839476505 0.199473998711
H 2.837440850478 0.878160523495 0.544473998711
Cl -2.083476363597 -0.174141225529 0.637258629388
