9
Coordinates from XML
N 1.744925266093 0.257717763584 -1.10770933965
C 2.905925266093 0.115717763584 -0.23670933965
H 1.635925266093 -0.459282236416 -1.82770933965
H 1.596925266093 1.187717763584 -1.50570933965
H 0.857925266093 0.124717763584 -0.53370933965
H 3.801925266093 0.255717763584 -0.84370933965
H 2.884925266093 -0.886282236416 0.19729066035
H 2.842925266093 0.878717763584 0.54229066035
Cl -2.088502998436 -0.174651953133 0.639259725848
