9
Coordinates from XML
N 1.750409681708 0.258275003673 -1.109892678012
C 2.911409681708 0.116275003673 -0.238892678012
H 1.641409681708 -0.458724996327 -1.829892678012
H 1.602409681708 1.188275003673 -1.507892678012
H 0.863409681708 0.125275003673 -0.535892678012
H 3.807409681708 0.256275003673 -0.845892678012
H 2.890409681708 -0.885724996327 0.195107321988
H 2.848409681708 0.879275003673 0.540107321988
Cl -2.093529633274 -0.175162680737 0.641260822308
