9
Coordinates from XML
N -0.2001036627 0.420809665154 -2.593483704141
C 0.215551940648 -0.453392215057 -1.411541199623
H 0.130961327174 0.024911795413 -3.476668150198
H 0.187378638534 1.363460948152 -2.506723389418
H -1.21833721695 0.503342701196 -2.64823191777
H 1.298864952236 -0.512646747311 -1.392512906652
H -0.216039695748 -1.439560904573 -1.545024560884
H -0.155328670691 0.002952806026 -0.499689110358
Cl 0.005368451563 -0.011265243875 1.87076563262
