9
Coordinates from XML
N -0.2001036627 0.420809665154 -2.760452077519
C 0.215551940648 -0.453392215057 -1.578509573001
H 0.130961327174 0.024911795413 -3.643636523576
H 0.187378638534 1.363460948152 -2.673691762796
H -1.21833721695 0.503342701196 -2.815200291148
H 1.298864952236 -0.512646747311 -1.55948128003
H -0.216039695748 -1.439560904573 -1.711992934262
H -0.155328670691 0.002952806026 -0.666657483736
Cl 0.005368451563 -0.011265243875 2.023797259242
