9
Coordinates from XML
N -0.2001036627 0.420809665154 -2.885678357552
C 0.215551940648 -0.453392215057 -1.703735853034
H 0.130961327174 0.024911795413 -3.76886280361
H 0.187378638534 1.363460948152 -2.798918042829
H -1.21833721695 0.503342701196 -2.940426571181
H 1.298864952236 -0.512646747311 -1.684707560064
H -0.216039695748 -1.439560904573 -1.837219214295
H -0.155328670691 0.002952806026 -0.79188376377
Cl 0.005368451563 -0.011265243875 2.138570979208
