9
Coordinates from XML
N -0.2001036627 0.420809665154 -2.969162544241
C 0.215551940648 -0.453392215057 -1.787220039723
H 0.130961327174 0.024911795413 -3.852346990299
H 0.187378638534 1.363460948152 -2.882402229518
H -1.21833721695 0.503342701196 -3.02391075787
H 1.298864952236 -0.512646747311 -1.768191746753
H -0.216039695748 -1.439560904573 -1.920703400984
H -0.155328670691 0.002952806026 -0.875367950459
Cl 0.005368451563 -0.011265243875 2.215086792519
