9
Coordinates from XML
N -0.2001036627 0.420809665154 -3.010904637586
C 0.215551940648 -0.453392215057 -1.828962133067
H 0.130961327174 0.024911795413 -3.894089083643
H 0.187378638534 1.363460948152 -2.924144322863
H -1.21833721695 0.503342701196 -3.065652851214
H 1.298864952236 -0.512646747311 -1.809933840097
H -0.216039695748 -1.439560904573 -1.962445494329
H -0.155328670691 0.002952806026 -0.917110043803
Cl 0.005368451563 -0.011265243875 2.253344699175
