9
Coordinates from XML
N -0.2001036627 0.420809665154 -3.271792720989
C 0.215551940648 -0.453392215057 -2.089850216471
H 0.130961327174 0.024911795413 -4.154977167046
H 0.187378638534 1.363460948152 -3.185032406266
H -1.21833721695 0.503342701196 -3.326540934618
H 1.298864952236 -0.512646747311 -2.0708219235
H -0.216039695748 -1.439560904573 -2.223333577732
H -0.155328670691 0.002952806026 -1.177998127206
Cl 0.005368451563 -0.011265243875 2.492456615772
