9
Coordinates from XML
N -0.2001036627 0.420809665154 -3.313534814333
C 0.215551940648 -0.453392215057 -2.131592309815
H 0.130961327174 0.024911795413 -4.196719260391
H 0.187378638534 1.363460948152 -3.22677449961
H -1.21833721695 0.503342701196 -3.368283027962
H 1.298864952236 -0.512646747311 -2.112564016845
H -0.216039695748 -1.439560904573 -2.265075671076
H -0.155328670691 0.002952806026 -1.219740220551
Cl 0.005368451563 -0.011265243875 2.530714522427
