9
Coordinates from XML
N -0.2001036627 0.420809665154 -3.355276907678
C 0.215551940648 -0.453392215057 -2.17333440316
H 0.130961327174 0.024911795413 -4.238461353735
H 0.187378638534 1.363460948152 -3.268516592955
H -1.21833721695 0.503342701196 -3.410025121307
H 1.298864952236 -0.512646747311 -2.154306110189
H -0.216039695748 -1.439560904573 -2.306817764421
H -0.155328670691 0.002952806026 -1.261482313895
Cl 0.005368451563 -0.011265243875 2.568972429083
