9
Coordinates from XML
N -0.2001036627 0.420809665154 -3.480503187711
C 0.215551940648 -0.453392215057 -2.298560683193
H 0.130961327174 0.024911795413 -4.363687633769
H 0.187378638534 1.363460948152 -3.393742872988
H -1.21833721695 0.503342701196 -3.53525140134
H 1.298864952236 -0.512646747311 -2.279532390223
H -0.216039695748 -1.439560904573 -2.432044044454
H -0.155328670691 0.002952806026 -1.386708593929
Cl 0.005368451563 -0.011265243875 2.683746149049
