9
Coordinates from XML
N -0.2001036627 0.420809665154 -3.522245281056
C 0.215551940648 -0.453392215057 -2.340302776538
H 0.130961327174 0.024911795413 -4.405429727113
H 0.187378638534 1.363460948152 -3.435484966333
H -1.21833721695 0.503342701196 -3.576993494684
H 1.298864952236 -0.512646747311 -2.321274483567
H -0.216039695748 -1.439560904573 -2.473786137799
H -0.155328670691 0.002952806026 -1.428450687273
Cl 0.005368451563 -0.011265243875 2.722004055705
