9
Coordinates from XML
N -0.2001036627 0.420809665154 -3.5639873744
C 0.215551940648 -0.453392215057 -2.382044869882
H 0.130961327174 0.024911795413 -4.447171820458
H 0.187378638534 1.363460948152 -3.477227059677
H -1.21833721695 0.503342701196 -3.618735588029
H 1.298864952236 -0.512646747311 -2.363016576912
H -0.216039695748 -1.439560904573 -2.515528231143
H -0.155328670691 0.002952806026 -1.470192780618
Cl 0.005368451563 -0.011265243875 2.76026196236
