9
Coordinates from XML
N -0.2001036627 0.420809665154 -3.605729467745
C 0.215551940648 -0.453392215057 -2.423786963226
H 0.130961327174 0.024911795413 -4.488913913802
H 0.187378638534 1.363460948152 -3.518969153022
H -1.21833721695 0.503342701196 -3.660477681373
H 1.298864952236 -0.512646747311 -2.404758670256
H -0.216039695748 -1.439560904573 -2.557270324488
H -0.155328670691 0.002952806026 -1.511934873962
Cl 0.005368451563 -0.011265243875 2.798519869016
