9
Coordinates from XML
N -0.2001036627 0.420809665154 -3.657907084425
C 0.215551940648 -0.453392215057 -2.475964579907
H 0.130961327174 0.024911795413 -4.541091530483
H 0.187378638534 1.363460948152 -3.571146769702
H -1.21833721695 0.503342701196 -3.712655298054
H 1.298864952236 -0.512646747311 -2.456936286937
H -0.216039695748 -1.439560904573 -2.609447941169
H -0.155328670691 0.002952806026 -1.564112490643
Cl 0.005368451563 -0.011265243875 2.846342252335
