9
Coordinates from XML
N -0.2001036627 0.420809665154 -3.69964917777
C 0.215551940648 -0.453392215057 -2.517706673252
H 0.130961327174 0.024911795413 -4.582833623827
H 0.187378638534 1.363460948152 -3.612888863047
H -1.21833721695 0.503342701196 -3.754397391399
H 1.298864952236 -0.512646747311 -2.498678380281
H -0.216039695748 -1.439560904573 -2.651190034513
H -0.155328670691 0.002952806026 -1.605854583987
Cl 0.005368451563 -0.011265243875 2.884600158991
