9
Coordinates from XML
N 0.0222934 0.0512788 -2.50735
C -0.0240638 -0.0552021 -0.984033
H -0.912346 -0.0497452 -2.91059
H 0.617956 -0.677327 -2.90808
H 0.394583 0.958019 -2.80032
H -0.423629 -1.02886 -0.719888
H -0.664351 0.733504 -0.60378
H 0.984873 0.0572563 -0.601049
Cl -0.000585499 -0.0013848 1.64561
