9
Coordinates from XML
N 0.022293413264 0.051278817277 -2.601271594104
C -0.024063809452 -0.055202103677 -1.077953041298
H -0.912345740379 -0.049745162175 -3.004505675744
H 0.617956291308 -0.677327015873 -3.00199669057
H 0.394582525125 0.958019416185 -2.894240779196
H -0.423629152553 -1.028862851904 -0.813808117904
H -0.664350664393 0.733504203946 -0.697699262581
H 0.984873148936 0.057256322384 -0.694969026963
Cl -0.000585498518 -0.00138479673 1.731694476455
