9
Coordinates from XML
N 0.0222934 0.0512788 -2.60127
C -0.0240638 -0.0552021 -1.07795
H -0.912346 -0.0497452 -3.00451
H 0.617956 -0.677327 -3.002
H 0.394583 0.958019 -2.89424
H -0.423629 -1.02886 -0.813808
H -0.664351 0.733504 -0.697699
H 0.984873 0.0572563 -0.694969
Cl -0.000585499 -0.0013848 1.73169
