9
Coordinates from XML
N 0.0222934 0.0512788 -2.97695
C -0.0240638 -0.0552021 -1.45363
H -0.912346 -0.0497452 -3.38018
H 0.617956 -0.677327 -3.37768
H 0.394583 0.958019 -3.26992
H -0.423629 -1.02886 -1.18949
H -0.664351 0.733504 -1.07338
H 0.984873 0.0572563 -1.07065
Cl -0.000585499 -0.0013848 2.07602
