9
Coordinates from XML
N 0.0222934 0.0512788 -3.16479
C -0.0240638 -0.0552021 -1.64147
H -0.912346 -0.0497452 -3.56802
H 0.617956 -0.677327 -3.56551
H 0.394583 0.958019 -3.45776
H -0.423629 -1.02886 -1.37733
H -0.664351 0.733504 -1.26122
H 0.984873 0.0572563 -1.25849
Cl -0.000585499 -0.0013848 2.24818
