9
Coordinates from XML
N 0.022293413264 0.051278817277 -3.164789854255
C -0.024063809452 -0.055202103677 -1.641471301449
H -0.912345740379 -0.049745162175 -3.568023935895
H 0.617956291308 -0.677327015873 -3.565514950721
H 0.394582525125 0.958019416185 -3.457759039347
H -0.423629152553 -1.028862851904 -1.377326378054
H -0.664350664393 0.733504203946 -1.261217522732
H 0.984873148936 0.057256322384 -1.258487287114
Cl -0.000585498518 -0.00138479673 2.248176216304
