9
Coordinates from XML
N 0.0222934 0.0512788 -3.34219
C -0.0240638 -0.0552021 -1.81888
H -0.912346 -0.0497452 -3.74543
H 0.617956 -0.677327 -3.74292
H 0.394583 0.958019 -3.63516
H -0.423629 -1.02886 -1.55473
H -0.664351 0.733504 -1.43862
H 0.984873 0.0572563 -1.43589
Cl -0.000585499 -0.0013848 2.41077
