9
Coordinates from XML
N 1.623484634622 0.245378875894 -1.059363990224
C 2.784484634622 0.103378875894 -0.188363990224
H 1.514484634622 -0.471621124106 -1.779363990224
H 1.475484634622 1.175378875894 -1.457363990224
H 0.736484634622 0.112378875894 -0.485363990224
H 3.680484634622 0.243378875894 -0.795363990224
H 2.763484634622 -0.898621124106 0.245636009776
H 2.721484634622 0.866378875894 0.590636009776
Cl -1.97719894129 -0.16334298476 0.594949732807
