9
Coordinates from XML
N 1.678642185948 0.250983119077 -1.081322136028
C 2.839642185948 0.108983119077 -0.210322136028
H 1.569642185948 -0.466016880923 -1.801322136028
H 1.530642185948 1.180983119077 -1.479322136028
H 0.791642185948 0.117983119077 -0.507322136028
H 3.735642185948 0.248983119077 -0.817322136028
H 2.818642185948 -0.893016880923 0.223677863972
H 2.776642185948 0.871983119077 0.568677863972
Cl -2.027752525955 -0.168479445234 0.615075045776
