9
Coordinates from XML
N 1.733799737274 0.25658736226 -1.103280281832
C 2.894799737274 0.11458736226 -0.232280281832
H 1.624799737274 -0.46041263774 -1.823280281832
H 1.585799737274 1.18658736226 -1.501280281832
H 0.846799737274 0.12358736226 -0.529280281832
H 3.790799737274 0.25458736226 -0.839280281832
H 2.873799737274 -0.88741263774 0.201719718168
H 2.831799737274 0.87758736226 0.546719718168
Cl -2.07830611062 -0.173615905708 0.635200358744
