9
Coordinates from XML
N 0.039968064778 0.734146147966 -1.708057201664
C -0.043074179853 -0.790899524307 -1.671639142495
H -0.797263465306 1.156800339788 -1.299693741359
H 0.126912708705 1.073972363467 -2.668900632962
H 0.850237333624 1.069865542695 -1.181402817935
H -0.91346219424 -1.10106443199 -2.240552748462
H -0.133953880692 -1.105473661088 -0.637520278453
H 0.862099339525 -1.194758337398 -2.113041903855
Cl -0.001067034182 -0.019676445108 1.549898941602
