9
Coordinates from XML
N 0.039968064778 0.734146147966 -1.77067034168
C -0.043074179853 -0.790899524307 -1.734252282512
H -0.797263465306 1.156800339788 -1.362306881375
H 0.126912708705 1.073972363467 -2.731513772979
H 0.850237333624 1.069865542695 -1.244015957951
H -0.91346219424 -1.10106443199 -2.303165888478
H -0.133953880692 -1.105473661088 -0.70013341847
H 0.862099339525 -1.194758337398 -2.175655043871
Cl -0.001067034182 -0.019676445108 1.607285801585
