9
Coordinates from XML
N 0.039968064778 0.734146147966 -1.833283481697
C -0.043074179853 -0.790899524307 -1.796865422528
H -0.797263465306 1.156800339788 -1.424920021392
H 0.126912708705 1.073972363467 -2.794126912995
H 0.850237333624 1.069865542695 -1.306629097968
H -0.91346219424 -1.10106443199 -2.365779028495
H -0.133953880692 -1.105473661088 -0.762746558487
H 0.862099339525 -1.194758337398 -2.238268183888
Cl -0.001067034182 -0.019676445108 1.664672661569
