15
Coordinates from XML
N -0.164611790446 -1.005476440157 -3.396894838009
C -0.447224594041 0.33787510855 -2.779209391904
H -0.911261181988 -1.265957170523 -4.062997990019
H -0.110830342478 -1.738356628645 -2.669768380935
H 0.733587523618 -0.991111776563 -3.908529143696
H -1.420655465822 0.260573622277 -2.285218393013
H -0.522310722645 1.05454112584 -3.60280627209
C 0.607780746141 0.821858921762 -1.768224487845
H 0.69184859358 0.123762276386 -0.931747593937
H 0.327999974249 1.800182546282 -1.369642878903
H 1.586963963698 0.914538657906 -2.24437760152
O 0.397829624722 0.376523462519 1.71937837621
O -0.538889862328 -0.624913633745 3.556934412037
C 0.138094572903 0.243389070852 2.944832878267
H 0.594576849166 1.047655074563 3.615717657296
