15
Coordinates from XML
N -0.302181444456 1.201838273414 -2.125526906221
C 0.167593764487 -0.056871071184 -2.804467794212
H -0.287974177616 1.999275580517 -2.78349410047
H 0.307486183517 1.434268424216 -1.323653906426
H -1.268355725488 1.08973065904 -1.775273918264
H 1.177298662655 0.142190191346 -3.176544293438
H -0.498835425494 -0.223679669465 -3.656293453828
C 0.184749936336 -1.309037579093 -1.909396971462
H 0.852633369734 -1.166472653262 -1.056339596713
H 0.535956903627 -2.174261493405 -2.477114275963
H -0.817264112888 -1.530858932676 -1.534064815962
O 0.136846061729 0.598324076192 1.332687500649
O 0.198930685212 -0.68395457827 3.232381894976
C -0.32854795324 0.083471405491 2.384001411098
H -1.414683375078 0.359824737183 2.605913424048
