15
Coordinates from XML
N -0.302181 1.20184 -2.12553
C 0.167594 -0.0568711 -2.80447
H -0.287974 1.99928 -2.78349
H 0.307486 1.43427 -1.32365
H -1.26836 1.08973 -1.77527
H 1.1773 0.14219 -3.17654
H -0.498835 -0.22368 -3.65629
C 0.18475 -1.30904 -1.9094
H 0.852633 -1.16647 -1.05634
H 0.535957 -2.17426 -2.47711
H -0.817264 -1.53086 -1.53406
O 0.136846 0.598324 1.33269
O 0.198931 -0.683955 3.23238
C -0.328548 0.0834714 2.384
H -1.41468 0.359825 2.60591
