15
Coordinates from XML
N 0.269898 1.16289 -1.93294
C 0.376291 -0.127439 -2.70088
H 0.99394 1.83311 -2.24212
H 0.395 0.99718 -0.920219
H -0.6562 1.59908 -2.07721
H 1.38529 -0.515126 -2.53003
H 0.267144 0.125566 -3.75995
C -0.660261 -1.19848 -2.31643
H -0.561971 -1.47245 -1.26316
H -0.514123 -2.09874 -2.91845
H -1.67603 -0.834051 -2.48826
O 0.379596 0.921714 1.75427
O -0.668061 -0.860484 2.74579
C 0.282258 -0.0602575 2.53733
H 1.21541 -0.258996 3.16586
