15
Coordinates from XML
N -0.897402 -0.809272 -2.4419
C 0.488533 -0.237852 -2.30529
H -0.867908 -1.7332 -2.90506
H -1.4967 -0.184249 -3.00662
H -1.3374 -0.927469 -1.51391
H 0.904072 -0.170521 -3.31542
H 1.07269 -0.96103 -1.72794
C 0.557371 1.14157 -1.62572
H -0.0128882 1.88165 -2.19246
H 1.59414 1.48191 -1.56621
H 0.154842 1.09416 -0.610917
O 1.01652 0.401076 1.79617
O -0.802141 -0.627566 2.74026
C -0.209566 0.22189 2.02318
H -0.902503 0.955162 1.48703
