15
Coordinates from XML
N 0.688054 -0.200348 -3.40208
C 0.306357 0.35134 -2.05451
H 1.61945 0.145527 -3.68826
H 0.00281541 0.0850744 -4.1216
H 0.720765 -1.23336 -3.37847
H 0.322894 1.44198 -2.14281
H 1.08642 0.039474 -1.35322
C -1.0686 -0.103613 -1.53309
H -1.8638 0.206519 -2.21542
H -1.26671 0.339563 -0.554006
H -1.10322 -1.19085 -1.42901
O 0.978595 -0.523278 2.10103
O -0.970968 0.264135 3.01543
C -0.00765588 0.253695 2.20373
H -0.0326648 1.09219 1.4281
