15
Coordinates from XML
N -0.506368135348 0.140150754405 -1.409096831727
C -0.435870203277 0.002078602073 -2.906416040454
H -1.486578815932 0.245286805723 -1.097388047313
H 0.023472983986 0.969623186326 -1.092928249567
H -0.108152533462 -0.693793489344 -0.945740223018
H -0.900499192706 0.898202107546 -3.32908950073
H -1.040297163604 -0.870739597528 -3.171776866831
C 0.984565407697 -0.160869112889 -3.476659666254
H 1.602804980185 0.705859611087 -3.230364978236
H 0.946196665696 -0.254744673492 -4.564766697919
H 1.463664872791 -1.056402434589 -3.073429128011
O -0.56615152305 0.848912616837 3.151533170958
O 0.512030259704 -0.633378557124 1.774119377309
C 0.05310547365 -0.210992857059 2.868607459073
H 0.228450588634 -0.908329913094 3.756459575662
