15
Coordinates from XML
N -0.506368 0.140151 -1.4091
C -0.43587 0.0020786 -2.90642
H -1.48658 0.245287 -1.09739
H 0.023473 0.969623 -1.09293
H -0.108153 -0.693793 -0.94574
H -0.900499 0.898202 -3.32909
H -1.0403 -0.87074 -3.17178
C 0.984565 -0.160869 -3.47666
H 1.6028 0.70586 -3.23036
H 0.946197 -0.254745 -4.56477
H 1.46366 -1.0564 -3.07343
O -0.566152 0.848913 3.15153
O 0.51203 -0.633379 1.77412
C 0.0531055 -0.210993 2.86861
H 0.228451 -0.90833 3.75646
