15
Coordinates from XML
N 0.256942 -0.953698 -3.13281
C 0.492652 0.134482 -2.11974
H 1.13466 -1.46143 -3.33489
H -0.0980496 -0.557529 -4.01923
H -0.436833 -1.63543 -2.78258
H 1.25569 0.797408 -2.53911
H 0.895074 -0.349413 -1.22449
C -0.755275 0.954713 -1.74655
H -1.16795 1.45439 -2.62639
H -0.498141 1.71905 -1.00904
H -1.52737 0.31178 -1.31689
O -0.0356462 0.176536 3.57408
O 0.289373 -0.40195 1.3794
C -0.248391 0.220885 2.33324
H -1.06941 0.950764 2.01937
