15
Coordinates from XML
N 0.659315 -0.480476 -1.48822
C 0.268618 -0.161745 -2.90659
H 1.5169 -1.05762 -1.46613
H -0.0936798 -1.00304 -1.01006
H 0.840098 0.386552 -0.95501
H 0.125168 -1.11856 -3.41796
H 1.11824 0.359186 -3.35862
C -1.00051 0.696971 -3.05248
H -1.86393 0.189848 -2.61496
H -1.2121 0.881746 -4.10858
H -0.874662 1.66205 -2.55559
O -0.553375 0.766944 3.16041
O 0.694231 -0.470209 1.68736
C -0.138034 -0.290297 2.61574
H -0.594175 -1.24998 3.03557
