15
Coordinates from XML
N -0.836292 -0.729272 -2.51558
C 0.476072 -0.310276 -1.90884
H -0.779706 -1.69623 -2.87728
H -1.09234 -0.105993 -3.2996
H -1.59301 -0.691667 -1.81223
H 1.23226 -0.404411 -2.69426
H 0.699051 -1.02728 -1.11275
C 0.499853 1.11901 -1.33793
H 0.288362 1.85227 -2.12004
H 1.484 1.3417 -0.918258
H -0.243071 1.23182 -0.544548
O -0.238023 -1.06451 1.59897
O 0.356518 1.10203 2.05672
C -0.115732 -0.0365177 2.31675
H -0.498589 -0.15755 3.38636
