15
Coordinates from XML
N -0.98366 0.690722 -2.47615
C 0.202194 -0.224067 -2.62751
H -1.41835 0.880845 -3.39481
H -0.6985 1.59357 -2.06109
H -1.69854 0.264422 -1.86299
H 0.899465 0.271925 -3.3097
H -0.164623 -1.14111 -3.09873
C 0.924849 -0.57209 -1.31373
H 1.30759 0.330521 -0.831135
H 1.76886 -1.23743 -1.51179
H 0.247374 -1.07705 -0.620802
O 1.13915 0.140039 2.36381
O -1.02853 -0.195493 1.69632
C -0.107997 0.0540785 2.51928
H -0.465194 0.233073 3.58964
