15
Coordinates from XML
N -0.983660268806 0.690721570196 -2.476149589516
C 0.202193869419 -0.224066780159 -2.627513149888
H -1.418347222402 0.880844781701 -3.394805864039
H -0.698500324715 1.593568172176 -2.061094750994
H -1.698536628953 0.264422426595 -1.862994760807
H 0.899464745077 0.271924929039 -3.309697757797
H -0.164622567246 -1.141105891979 -3.098729551644
C 0.924849310656 -0.572089819836 -1.313733810499
H 1.307592366624 0.330520987028 -0.831135211518
H 1.768864973409 -1.237426509284 -1.511790227469
H 0.247373797445 -1.077048872264 -0.62080208293
O 1.139146262379 0.140038927591 2.363806013561
O -1.028526609314 -0.195493422663 1.696315037395
C -0.107996768028 0.054078489982 2.519275833376
H -0.465194037536 0.233072547968 3.589639088473
