15
Coordinates from XML
N -0.603189741976 -0.434453009458 -3.155472972483
C 0.114137892252 -0.455551281309 -1.832221439857
H -0.883623289114 -1.389691927673 -3.434586871577
H 0.006144395162 -0.047819318677 -3.895706042449
H -1.454996870559 0.148761902838 -3.10049119484
H 0.981122283856 -1.112363007571 -1.952665243599
H -0.573105153292 -0.9030758859 -1.107667333708
C 0.576465696349 0.921499571531 -1.322956257705
H 1.271901342699 1.382216243574 -2.028795710547
H 1.085073449687 0.817233770797 -0.361338615583
H -0.276549530023 1.590857176428 -1.187175128511
O -1.104123004214 -0.162933712901 1.890019477962
O 0.948934071011 0.37395526509 2.758143150708
C 0.152063369634 -0.206419783582 1.9738678877
H 0.654432803183 -0.888903300286 1.207612407026
