15
Coordinates from XML
N -0.275085 -0.2085 -4.0641
C 0.0968547 -0.512648 -2.63751
H -0.340299 -1.07884 -4.61843
H 0.433269 0.402226 -4.50452
H -1.1893 0.272025 -4.10924
H 1.05197 -1.04603 -2.66631
H -0.673787 -1.18412 -2.24663
C 0.220775 0.719095 -1.72273
H 0.992874 1.39911 -2.0909
H 0.491608 0.411413 -0.709697
H -0.726431 1.26171 -1.67297
O 0.424064 0.640862 2.06527
O -0.710603 -0.445997 3.73506
C 0.280519 -0.190675 3.00061
H 1.20776 -0.820967 3.2203
