15
Coordinates from XML
N -0.231359 1.16468 -2.05076
C -0.477548 -0.177926 -2.68543
H -1.06924 1.76535 -2.1293
H 0.556924 1.64851 -2.51254
H -0.00306024 1.0589 -1.04805
H -0.743715 0.00990844 -3.73015
H -1.33891 -0.616493 -2.17233
C 0.711979 -1.15286 -2.62299
H 1.58118 -0.737182 -3.13855
H 0.450388 -2.09901 -3.10322
H 0.988393 -1.36107 -1.58648
O -0.478641 -0.645775 3.32512
O 0.627859 0.335488 1.57306
C -0.145986 0.303364 2.56657
H -0.628665 1.30647 2.82367
