15
Coordinates from XML
N 0.564974 -0.59434 -3.62738
C 0.417997 0.193742 -2.35328
H 1.56289 -0.756772 -3.84374
H 0.140919 -0.0871521 -4.42215
H 0.099006 -1.51346 -3.54475
H 0.958307 1.13421 -2.49877
H 0.913591 -0.383046 -1.56635
C -1.03415 0.491442 -1.93854
H -1.54491 1.0756 -2.70794
H -1.05126 1.06379 -1.00774
H -1.58957 -0.436047 -1.77924
O -1.1378 -0.188708 2.62826
O 1.04915 0.168533 3.21698
C 0.0866185 0.0199157 2.41799
H 0.373005 0.0855434 1.31392
