15
Coordinates from XML
N 0.564974391489 -0.594339973697 -3.627381038377
C 0.417997460765 0.193742056174 -2.353284030088
H 1.562888271137 -0.756771674712 -3.843743616499
H 0.140919138202 -0.087152091584 -4.422149113853
H 0.099005953849 -1.513460954393 -3.544749010281
H 0.958307128494 1.13420523651 -2.498765157011
H 0.913591159996 -0.383045983528 -1.566351777198
C -1.034147803713 0.491442297101 -1.938536187529
H -1.544907471143 1.075596837919 -2.707943724448
H -1.051258649196 1.063793901484 -1.00773945702
H -1.589574687793 -0.43604685136 -1.779237880479
O -1.137795343958 -0.188708145831 2.628261959142
O 1.04914888293 0.168532664751 3.216977333273
C 0.086618533314 0.019915694754 2.417994153038
H 0.373005274231 0.085543401443 1.313919020295
