15
Coordinates from XML
N -0.402335 0.437686 -1.12764
C -0.363072 0.2009 -2.6137
H -1.20472 1.03851 -0.874232
H 0.463375 0.904016 -0.808572
H -0.494925 -0.456481 -0.617115
H -0.297673 1.18434 -3.08924
H -1.31664 -0.262512 -2.88485
C 0.798139 -0.685416 -3.09888
H 1.76116 -0.235251 -2.84581
H 0.752653 -0.806849 -4.18399
H 0.746144 -1.67669 -2.64196
O 0.0682137 0.954585 1.62096
O -0.398756 -0.837546 2.97268
C 0.323615 -0.114672 2.23609
H 1.39325 -0.493511 2.10317
