15
Coordinates from XML
N 0.982151 -0.764918 -2.39246
C 0.0434789 0.349754 -2.76982
H 1.75996 -0.833107 -3.07024
H 0.486088 -1.6718 -2.3783
H 1.38498 -0.602061 -1.4544
H -0.31806 0.130944 -3.77926
H 0.638242 1.26797 -2.79635
C -1.15456 0.537834 -1.82182
H -1.76763 -0.366104 -1.78804
H -1.78238 1.36351 -2.16587
H -0.814882 0.766444 -0.808671
O 0.235145 0.587891 1.40569
O 0.0366082 -0.395707 3.46726
C -0.266245 -0.187881 2.26226
H -1.14602 -0.809133 1.88102
