15
Coordinates from XML
N -0.100711548143 0.528537148109 -3.694279309192
C 0.348391731776 -0.44530702396 -2.637902263346
H 0.313830297458 0.290374550592 -4.611046765688
H 0.186908689865 1.491094000738 -3.450399003415
H -1.129786535073 0.513504516444 -3.791832911696
H 1.441502909779 -0.401136622366 -2.610935301195
H 0.040885007359 -1.440166585174 -2.974434573831
C -0.213916562687 -0.179893077799 -1.229807133512
H 0.089887991063 0.806469334248 -0.870791940908
H 0.159095578222 -0.928881147522 -0.526855849462
H -1.305587092439 -0.228437244647 -1.232971471645
O 0.465561214084 1.018171125153 2.933731439568
O -0.183272162402 -1.022937256533 2.115303883965
C -0.276252431569 0.004504138632 2.838245547619
H -1.189429846815 0.019661393513 3.524673639927
