15
Coordinates from XML
N -0.100712 0.528537 -3.69428
C 0.348392 -0.445307 -2.6379
H 0.31383 0.290375 -4.61105
H 0.186909 1.49109 -3.4504
H -1.12979 0.513505 -3.79183
H 1.4415 -0.401137 -2.61094
H 0.040885 -1.44017 -2.97443
C -0.213917 -0.179893 -1.22981
H 0.089888 0.806469 -0.870792
H 0.159096 -0.928881 -0.526856
H -1.30559 -0.228437 -1.23297
O 0.465561 1.01817 2.93373
O -0.183272 -1.02294 2.1153
C -0.276252 0.00450414 2.83825
H -1.18943 0.0196614 3.52467
