15
Coordinates from XML
N 0.347977 -1.19464 -2.36155
C -0.472305 0.00323987 -2.7593
H -0.0596517 -2.06203 -2.7495
H 0.384647 -1.28749 -1.33259
H 1.3163 -1.1079 -2.71306
H -1.48624 -0.169253 -2.38547
H -0.494895 0.0212498 -3.85325
C 0.0501675 1.35147 -2.23141
H 0.0718648 1.35772 -1.1389
H -0.599265 2.16476 -2.56466
H 1.05967 1.54742 -2.60102
O 0.145188 -0.0585636 1.34967
O 0.0299467 -0.247382 3.63177
C -0.171515 0.299769 2.5151
H -0.738347 1.29031 2.56833
