15
Coordinates from XML
N -0.134283 -0.247476 -4.4364
C 0.406149 0.397904 -3.18844
H 0.336728 0.129256 -5.27619
H -1.14876 -0.0715657 -4.52923
H 0.0158005 -1.27007 -4.41374
H 0.24425 1.47507 -3.29364
H 1.48231 0.200044 -3.17134
C -0.230169 -0.0940471 -1.87601
H -1.30501 0.102839 -1.86885
H 0.217139 0.421934 -1.02282
H -0.0717836 -1.16755 -1.7471
O 0.190113 -0.268273 2.18602
O -0.487289 0.0884644 4.34722
C 0.290898 0.176061 3.36047
H 1.25246 0.757939 3.5657
