15
Coordinates from XML
N -0.152947729184 -0.657808355504 -1.192093441459
C -0.995947729184 -1.823808355504 -0.979093441459
H -0.685947729184 0.244191644496 -1.071093441459
H 0.377052270816 -0.576808355504 -2.056093441459
H 0.523052270816 -0.501808355504 -0.397093441459
H -1.723947729184 -1.853808355504 -1.794093441459
H -1.517947729184 -1.684808355504 -0.028093441459
C -0.134947729184 -3.067808355504 -0.958093441459
H 0.408052270816 -3.188808355504 -1.902093441459
H -0.756947729184 -3.955808355504 -0.808093441459
H 0.598052270816 -3.026808355504 -0.146093441459
O 1.240267662321 1.150058767919 1.41379428913
O -0.466732337679 2.213058767919 0.47279428913
C 0.461267662321 2.146058767919 1.33079428913
H 0.600267662321 3.000058767919 2.04479428913
