15
Coordinates from XML
N -0.156376144019 -0.665704568857 -1.200749801088
C -0.999376144019 -1.831704568857 -0.987749801088
H -0.689376144019 0.236295431143 -1.079749801088
H 0.373623855981 -0.584704568857 -2.064749801088
H 0.519623855981 -0.509704568857 -0.405749801088
H -1.727376144019 -1.861704568857 -1.802749801088
H -1.521376144019 -1.692704568857 -0.036749801088
C -0.138376144019 -3.075704568857 -0.966749801088
H 0.404623855981 -3.196704568857 -1.910749801088
H -0.760376144019 -3.963704568857 -0.816749801088
H 0.594623855981 -3.034704568857 -0.154749801088
O 1.243777450634 1.158142398013 1.422656107583
O -0.463222549366 2.221142398013 0.481656107583
C 0.464777450634 2.154142398013 1.339656107583
H 0.603777450634 3.008142398013 2.053656107583
