15
Coordinates from XML
N -0.156376 -0.665705 -1.20075
C -0.999376 -1.8317 -0.98775
H -0.689376 0.236295 -1.07975
H 0.373624 -0.584705 -2.06475
H 0.519624 -0.509705 -0.40575
H -1.72738 -1.8617 -1.80275
H -1.52138 -1.6927 -0.0367498
C -0.138376 -3.0757 -0.96675
H 0.404624 -3.1967 -1.91075
H -0.760376 -3.9637 -0.81675
H 0.594624 -3.0347 -0.15475
O 1.24378 1.15814 1.42266
O -0.463223 2.22114 0.481656
C 0.464777 2.15414 1.33966
H 0.603777 3.00814 2.05366
