15
Coordinates from XML
N -0.163233 -0.681497 -1.21806
C -1.00623 -1.8475 -1.00506
H -0.696233 0.220503 -1.09706
H 0.366767 -0.600497 -2.08206
H 0.512767 -0.525497 -0.423063
H -1.73423 -1.8775 -1.82006
H -1.52823 -1.7085 -0.0540625
C -0.145233 -3.0915 -0.984063
H 0.397767 -3.2125 -1.92806
H -0.767233 -3.9795 -0.834063
H 0.587767 -3.0505 -0.172063
O 1.2508 1.17431 1.44038
O -0.456203 2.23731 0.49938
C 0.471797 2.17031 1.35738
H 0.610797 3.02431 2.07138
