15
Coordinates from XML
N -0.166661 -0.689393 -1.22672
C -1.00966 -1.85539 -1.01372
H -0.699661 0.212607 -1.10572
H 0.363339 -0.608393 -2.09072
H 0.509339 -0.533393 -0.431719
H -1.73766 -1.88539 -1.82872
H -1.53166 -1.71639 -0.0627189
C -0.148661 -3.09939 -0.992719
H 0.394339 -3.22039 -1.93672
H -0.770661 -3.98739 -0.842719
H 0.584339 -3.05839 -0.180719
O 1.25431 1.18239 1.44924
O -0.452693 2.24539 0.508242
C 0.475307 2.17839 1.36624
H 0.614307 3.03239 2.08024
