15
Coordinates from XML
N -0.168375595942 -0.693341315594 -1.231047059789
C -1.011375595942 -1.859341315594 -1.018047059789
H -0.701375595942 0.208658684406 -1.110047059789
H 0.361624404058 -0.612341315594 -2.095047059789
H 0.507624404058 -0.537341315594 -0.436047059789
H -1.739375595942 -1.889341315594 -1.833047059789
H -1.533375595942 -1.720341315594 -0.067047059789
C -0.150375595942 -3.103341315594 -0.997047059789
H 0.392624404058 -3.224341315594 -1.941047059789
H -0.772375595942 -3.991341315594 -0.847047059789
H 0.582624404058 -3.062341315594 -0.185047059789
O 1.256061709726 1.186435103343 1.453672472169
O -0.450938290274 2.249435103343 0.512672472169
C 0.477061709726 2.182435103343 1.370672472169
H 0.616061709726 3.036435103343 2.084672472169
