15
Coordinates from XML
N -0.173518 -0.705186 -1.24403
C -1.01652 -1.87119 -1.03103
H -0.706518 0.196814 -1.12303
H 0.356482 -0.624186 -2.10803
H 0.502482 -0.549186 -0.449032
H -1.74452 -1.90119 -1.84603
H -1.53852 -1.73219 -0.0800316
C -0.155518 -3.11519 -1.01003
H 0.387482 -3.23619 -1.95403
H -0.777518 -4.00319 -0.860032
H 0.577482 -3.07419 -0.198032
O 1.26133 1.19856 1.46697
O -0.445674 2.26156 0.525965
C 0.482326 2.19456 1.38397
H 0.621326 3.04856 2.09797
