15
Coordinates from XML
N -0.173518218195 -0.705185635624 -1.244031599233
C -1.016518218195 -1.871185635624 -1.031031599233
H -0.706518218195 0.196814364376 -1.123031599233
H 0.356481781805 -0.624185635624 -2.108031599233
H 0.502481781805 -0.549185635624 -0.449031599233
H -1.744518218195 -1.901185635624 -1.846031599233
H -1.538518218195 -1.732185635624 -0.080031599233
C -0.155518218195 -3.115185635624 -1.010031599233
H 0.387481781805 -3.236185635624 -1.954031599233
H -0.777518218195 -4.003185635624 -0.860031599233
H 0.577481781805 -3.074185635624 -0.198031599233
O 1.261326392194 1.198560548484 1.466965199848
O -0.445673607806 2.261560548484 0.525965199848
C 0.482326392194 2.194560548484 1.383965199848
H 0.621326392194 3.048560548484 2.097965199848
