15
Coordinates from XML
N -0.176947 -0.713082 -1.25269
C -1.01995 -1.87908 -1.03969
H -0.709947 0.188918 -1.13169
H 0.353053 -0.632082 -2.11669
H 0.499053 -0.557082 -0.457688
H -1.74795 -1.90908 -1.85469
H -1.54195 -1.74008 -0.088688
C -0.158947 -3.12308 -1.01869
H 0.384053 -3.24408 -1.96269
H -0.780947 -4.01108 -0.868688
H 0.574053 -3.08208 -0.206688
O 1.26484 1.20664 1.47583
O -0.442164 2.26964 0.534827
C 0.485836 2.20264 1.39283
H 0.624836 3.05664 2.10683
