15
Coordinates from XML
N -0.178660840448 -0.717029955654 -1.257016138676
C -1.021660840448 -1.883029955654 -1.044016138676
H -0.711660840448 0.184970044346 -1.136016138676
H 0.351339159552 -0.636029955654 -2.121016138676
H 0.497339159552 -0.561029955654 -0.462016138676
H -1.749660840448 -1.913029955654 -1.859016138676
H -1.543660840448 -1.744029955654 -0.093016138676
C -0.160660840448 -3.127029955654 -1.023016138676
H 0.382339159552 -3.248029955654 -1.967016138676
H -0.782660840448 -4.015029955654 -0.873016138676
H 0.572339159552 -3.086029955654 -0.211016138676
O 1.266591074662 1.210685993626 1.480257927528
O -0.440408925338 2.273685993626 0.539257927528
C 0.487591074662 2.206685993626 1.397257927528
H 0.626591074662 3.060685993626 2.111257927528
