15
Coordinates from XML
N -0.180375 -0.720978 -1.26134
C -1.02338 -1.88698 -1.04834
H -0.713375 0.181022 -1.14034
H 0.349625 -0.639978 -2.12534
H 0.495625 -0.564978 -0.466344
H -1.75138 -1.91698 -1.86334
H -1.54538 -1.74798 -0.0973443
C -0.162375 -3.13098 -1.02734
H 0.380625 -3.25198 -1.97134
H -0.784375 -4.01898 -0.877344
H 0.570625 -3.08998 -0.215344
O 1.26835 1.21473 1.48469
O -0.438654 2.27773 0.543689
C 0.489346 2.21073 1.40169
H 0.628346 3.06473 2.11569
