15
Coordinates from XML
N -0.182089255283 -0.724926169007 -1.265672498305
C -1.025089255283 -1.890926169007 -1.052672498305
H -0.715089255283 0.177073830993 -1.144672498305
H 0.347910744717 -0.643926169007 -2.129672498305
H 0.493910744717 -0.568926169007 -0.470672498305
H -1.753089255283 -1.920926169007 -1.867672498305
H -1.547089255283 -1.751926169007 -0.101672498305
C -0.164089255283 -3.134926169007 -1.031672498305
H 0.378910744717 -3.255926169007 -1.975672498305
H -0.786089255283 -4.022926169007 -0.881672498305
H 0.568910744717 -3.093926169007 -0.219672498305
O 1.270100862974 1.21876962372 1.489119745981
O -0.436899137026 2.28176962372 0.548119745981
C 0.491100862974 2.21476962372 1.406119745981
H 0.630100862974 3.06876962372 2.120119745981
