15
Coordinates from XML
N -0.183803 -0.728874 -1.27
C -1.0268 -1.89487 -1.057
H -0.716803 0.173126 -1.149
H 0.346197 -0.647874 -2.134
H 0.492197 -0.572874 -0.475001
H -1.7548 -1.92487 -1.872
H -1.5488 -1.75587 -0.106001
C -0.165803 -3.13887 -1.036
H 0.377197 -3.25987 -1.98
H -0.787803 -4.02687 -0.886001
H 0.567197 -3.09787 -0.224001
O 1.27186 1.22281 1.49355
O -0.435144 2.28581 0.552551
C 0.492856 2.21881 1.41055
H 0.631856 3.07281 2.12455
