15
Coordinates from XML
N -0.185518 -0.732822 -1.27433
C -1.02852 -1.89882 -1.06133
H -0.718518 0.169178 -1.15333
H 0.344482 -0.651822 -2.13833
H 0.490482 -0.576822 -0.479329
H -1.75652 -1.92882 -1.87633
H -1.55052 -1.75982 -0.110329
C -0.167518 -3.14282 -1.04033
H 0.375482 -3.26382 -1.98433
H -0.789518 -4.03082 -0.890329
H 0.565482 -3.10182 -0.228329
O 1.27361 1.22685 1.49798
O -0.433389 2.28985 0.556982
C 0.494611 2.22285 1.41498
H 0.633611 3.07685 2.12898
