15
Coordinates from XML
N -0.188946084953 -0.740718595714 -1.282985217563
C -1.031946084953 -1.906718595714 -1.069985217563
H -0.721946084953 0.161281404286 -1.161985217563
H 0.341053915047 -0.659718595714 -2.146985217563
H 0.487053915047 -0.584718595714 -0.487985217563
H -1.759946084953 -1.936718595714 -1.884985217563
H -1.553946084953 -1.767718595714 -0.118985217563
C -0.170946084953 -3.150718595714 -1.048985217563
H 0.372053915047 -3.271718595714 -1.992985217563
H -0.792946084953 -4.038718595714 -0.898985217563
H 0.562053915047 -3.109718595714 -0.236985217563
O 1.277120439598 1.234936883909 1.506843382887
O -0.429879560402 2.297936883909 0.565843382887
C 0.498120439598 2.230936883909 1.423843382887
H 0.637120439598 3.084936883909 2.137843382887
