15
Coordinates from XML
N -0.197517122041 -0.760459129097 -1.304626116636
C -1.040517122041 -1.926459129097 -1.091626116636
H -0.730517122041 0.141540870903 -1.183626116636
H 0.332482877959 -0.679459129097 -2.168626116636
H 0.478482877959 -0.604459129097 -0.509626116636
H -1.768517122041 -1.956459129097 -1.906626116636
H -1.562517122041 -1.787459129097 -0.140626116636
C -0.179517122041 -3.170459129097 -1.070626116636
H 0.363482877959 -3.291459129097 -2.014626116636
H -0.801517122041 -4.058459129097 -0.920626116636
H 0.553482877959 -3.129459129097 -0.258626116636
O 1.285894910378 1.255145959144 1.52899792902
O -0.421105089622 2.318145959144 0.58799792902
C 0.506894910378 2.251145959144 1.44599792902
H 0.645894910378 3.105145959144 2.15999792902
