15
Coordinates from XML
N -0.199231 -0.764407 -1.30895
C -1.04223 -1.93041 -1.09595
H -0.732231 0.137593 -1.18795
H 0.330769 -0.683407 -2.17295
H 0.476769 -0.608407 -0.513954
H -1.77023 -1.96041 -1.91095
H -1.56423 -1.79141 -0.144954
C -0.181231 -3.17441 -1.07495
H 0.361769 -3.29541 -2.01895
H -0.803231 -4.06241 -0.924954
H 0.551769 -3.13341 -0.262954
O 1.28765 1.25919 1.53343
O -0.41935 2.32219 0.592429
C 0.50865 2.25519 1.45043
H 0.64765 3.10919 2.16443
