15
Coordinates from XML
N -0.199231329459 -0.764407235774 -1.30895429645
C -1.042231329459 -1.930407235774 -1.09595429645
H -0.732231329459 0.137592764226 -1.18795429645
H 0.330768670541 -0.683407235774 -2.17295429645
H 0.476768670541 -0.608407235774 -0.51395429645
H -1.770231329459 -1.960407235774 -1.91095429645
H -1.564231329459 -1.791407235774 -0.14495429645
C -0.181231329459 -3.174407235774 -1.07495429645
H 0.361768670541 -3.295407235774 -2.01895429645
H -0.803231329459 -4.062407235774 -0.92495429645
H 0.551768670541 -3.133407235774 -0.26295429645
O 1.287649804534 1.259187774191 1.533428838246
O -0.419350195466 2.322187774191 0.592428838246
C 0.508649804534 2.255187774191 1.450428838246
H 0.647649804534 3.109187774191 2.164428838246
