15
Coordinates from XML
N -0.20266 -0.772303 -1.31761
C -1.04566 -1.9383 -1.10461
H -0.73566 0.129697 -1.19661
H 0.32734 -0.691303 -2.18161
H 0.47334 -0.616303 -0.522611
H -1.77366 -1.9683 -1.91961
H -1.56766 -1.7993 -0.153611
C -0.18466 -3.1823 -1.08361
H 0.35834 -3.3033 -2.02761
H -0.80666 -4.0703 -0.933611
H 0.54834 -3.1413 -0.271611
O 1.29116 1.26727 1.54229
O -0.41584 2.33027 0.601291
C 0.51216 2.26327 1.45929
H 0.65116 3.11727 2.17329
