15
Coordinates from XML
N -0.206088 -0.7802 -1.32627
C -1.04909 -1.9462 -1.11327
H -0.739088 0.1218 -1.20527
H 0.323912 -0.6992 -2.19027
H 0.469912 -0.6242 -0.531267
H -1.77709 -1.9762 -1.92827
H -1.57109 -1.8072 -0.162267
C -0.188088 -3.1902 -1.09227
H 0.354912 -3.3112 -2.03627
H -0.810088 -4.0782 -0.942267
H 0.544912 -3.1492 -0.280267
O 1.29467 1.27536 1.55115
O -0.412331 2.33836 0.610152
C 0.515669 2.27136 1.46815
H 0.654669 3.12536 2.18215
