15
Coordinates from XML
N -0.207802 -0.784148 -1.3306
C -1.0508 -1.95015 -1.1176
H -0.740802 0.117852 -1.2096
H 0.322198 -0.703148 -2.1946
H 0.468198 -0.628148 -0.535595
H -1.7788 -1.98015 -1.9326
H -1.5728 -1.81115 -0.166595
C -0.189802 -3.19415 -1.0966
H 0.353198 -3.31515 -2.0406
H -0.811802 -4.08215 -0.946595
H 0.543198 -3.15315 -0.284595
O 1.29642 1.2794 1.55558
O -0.410576 2.3424 0.614583
C 0.517424 2.2754 1.47258
H 0.656424 3.1294 2.18658
