15
Coordinates from XML
N -0.207802366546 -0.784147769157 -1.330595195523
C -1.050802366546 -1.950147769157 -1.117595195523
H -0.740802366546 0.117852230843 -1.209595195523
H 0.322197633454 -0.703147769157 -2.194595195523
H 0.468197633454 -0.628147769157 -0.535595195523
H -1.778802366546 -1.980147769157 -1.932595195523
H -1.572802366546 -1.811147769157 -0.166595195523
C -0.189802366546 -3.194147769157 -1.096595195523
H 0.353197633454 -3.315147769157 -2.040595195523
H -0.811802366546 -4.082147769157 -0.946595195523
H 0.543197633454 -3.153147769157 -0.284595195523
O 1.296424275314 1.279396849427 1.555583384379
O -0.410575724686 2.342396849427 0.614583384379
C 0.517424275314 2.275396849427 1.472583384379
H 0.656424275314 3.129396849427 2.186583384379
