15
Coordinates from XML
N -0.209517 -0.788096 -1.33492
C -1.05252 -1.9541 -1.12192
H -0.742517 0.113904 -1.21392
H 0.320483 -0.707096 -2.19892
H 0.466483 -0.632096 -0.539923
H -1.78052 -1.9841 -1.93692
H -1.57452 -1.8151 -0.170923
C -0.191517 -3.1981 -1.10092
H 0.351483 -3.3191 -2.04492
H -0.813517 -4.0861 -0.950923
H 0.541483 -3.1571 -0.288923
O 1.29818 1.28344 1.56001
O -0.408821 2.34644 0.619014
C 0.519179 2.27944 1.47701
H 0.658179 3.13344 2.19101
