15
Coordinates from XML
N -0.209516573964 -0.788095875834 -1.334923375337
C -1.052516573964 -1.954095875834 -1.121923375337
H -0.742516573964 0.113904124166 -1.213923375337
H 0.320483426036 -0.707095875834 -2.198923375337
H 0.466483426036 -0.632095875834 -0.539923375337
H -1.780516573964 -1.984095875834 -1.936923375337
H -1.574516573964 -1.815095875834 -0.170923375337
C -0.191516573964 -3.198095875834 -1.100923375337
H 0.351483426036 -3.319095875834 -2.044923375337
H -0.813516573964 -4.086095875834 -0.950923375337
H 0.541483426036 -3.157095875834 -0.288923375337
O 1.29817916947 1.283438664474 1.560014293606
O -0.40882083053 2.346438664474 0.619014293606
C 0.51917916947 2.279438664474 1.477014293606
H 0.65817916947 3.133438664474 2.191014293606
