15
Coordinates from XML
N -0.0234291 -0.140027 -1.69618
C 0.500646 0.0417964 -3.13958
H 0.701868 -0.521444 -1.08442
H -0.822952 -0.778008 -1.68379
H -0.329889 0.756874 -1.3114
H 0.835545 -0.942222 -3.46006
H 1.36299 0.700206 -3.06166
C -0.586056 0.60876 -4.03826
H -1.44937 -0.0545647 -4.11024
H -0.185098 0.7245 -5.04493
H -0.920265 1.59415 -3.70994
O 0.546871 -0.00858176 1.91722
O -0.322517 -0.652762 3.96705
C -0.0782586 0.16788 3.01791
H -0.479192 1.21711 3.17766
