15
Coordinates from XML
N -0.0234291 -0.140027 -2.08161
C 0.500646 0.0417964 -3.525
H 0.701868 -0.521444 -1.46984
H -0.822952 -0.778008 -2.06922
H -0.329889 0.756874 -1.69682
H 0.835545 -0.942222 -3.84549
H 1.36299 0.700206 -3.44708
C -0.586056 0.60876 -4.42369
H -1.44937 -0.0545647 -4.49566
H -0.185098 0.7245 -5.43035
H -0.920265 1.59415 -4.09537
O 0.546871 -0.00858176 2.3118
O -0.322517 -0.652762 4.36162
C -0.0782586 0.16788 3.41248
H -0.479192 1.21711 3.57223
