15
Coordinates from XML
N -0.127969278242 -0.600278801072 -1.129025678447
C -0.970969278242 -1.766278801072 -0.916025678447
H -0.660969278242 0.301721198928 -1.008025678447
H 0.402030721758 -0.519278801072 -1.993025678447
H 0.548030721758 -0.444278801072 -0.334025678447
H -1.698969278242 -1.796278801072 -1.731025678447
H -1.492969278242 -1.627278801072 0.034974321553
C -0.109969278242 -3.010278801072 -0.895025678447
H 0.433030721758 -3.131278801072 -1.839025678447
H -0.731969278242 -3.898278801072 -0.745025678447
H 0.623030721758 -2.969278801072 -0.083025678447
O 1.214696347476 1.09116374866 1.349229611829
O -0.492303652524 2.15416374866 0.408229611829
C 0.435696347476 2.08716374866 1.266229611829
H 0.574696347476 2.94116374866 1.980229611829
