15
Coordinates from XML
N -0.133916528467 -0.613976314032 -1.144041812498
C -0.976916528467 -1.779976314032 -0.931041812498
H -0.666916528467 0.288023685968 -1.023041812498
H 0.396083471533 -0.532976314032 -2.008041812498
H 0.542083471533 -0.457976314032 -0.349041812498
H -1.704916528467 -1.809976314032 -1.746041812498
H -1.498916528467 -1.640976314032 0.019958187502
C -0.115916528467 -3.023976314032 -0.910041812498
H 0.427083471533 -3.144976314032 -1.854041812498
H -0.737916528467 -3.911976314032 -0.760041812498
H 0.617083471533 -2.982976314032 -0.098041812498
O 1.220784755773 1.105186372293 1.364602154044
O -0.486215244227 2.168186372293 0.423602154044
C 0.441784755773 2.101186372293 1.281602154044
H 0.580784755773 2.955186372293 1.995602154044
