15
Coordinates from XML
N -0.139864 -0.627674 -1.15906
C -0.982864 -1.79367 -0.946058
H -0.672864 0.274326 -1.03806
H 0.390136 -0.546674 -2.02306
H 0.536136 -0.471674 -0.364058
H -1.71086 -1.82367 -1.76106
H -1.50486 -1.65467 0.00494205
C -0.121864 -3.03767 -0.925058
H 0.421136 -3.15867 -1.86906
H -0.743864 -3.92567 -0.775058
H 0.611136 -2.99667 -0.113058
O 1.22687 1.11921 1.37997
O -0.480127 2.18221 0.438975
C 0.447873 2.11521 1.29697
H 0.586873 2.96921 2.01097
