15
Coordinates from XML
N -0.145811028915 -0.641371339952 -1.174074080598
C -0.988811028915 -1.807371339952 -0.961074080598
H -0.678811028915 0.260628660048 -1.053074080598
H 0.384188971085 -0.560371339952 -2.038074080598
H 0.530188971085 -0.485371339952 -0.379074080598
H -1.716811028915 -1.837371339952 -1.776074080598
H -1.510811028915 -1.668371339952 -0.010074080598
C -0.127811028915 -3.051371339952 -0.940074080598
H 0.415188971085 -3.172371339952 -1.884074080598
H -0.749811028915 -3.939371339952 -0.790074080598
H 0.605188971085 -3.010371339952 -0.128074080598
O 1.232961572366 1.133231619559 1.395347238473
O -0.474038427634 2.196231619559 0.454347238473
C 0.453961572366 2.129231619559 1.312347238473
H 0.592961572366 2.983231619559 2.026347238473
