15
Coordinates from XML
N -0.145811 -0.641371 -1.17407
C -0.988811 -1.80737 -0.961074
H -0.678811 0.260629 -1.05307
H 0.384189 -0.560371 -2.03807
H 0.530189 -0.485371 -0.379074
H -1.71681 -1.83737 -1.77607
H -1.51081 -1.66837 -0.0100741
C -0.127811 -3.05137 -0.940074
H 0.415189 -3.17237 -1.88407
H -0.749811 -3.93937 -0.790074
H 0.605189 -3.01037 -0.128074
O 1.23296 1.13323 1.39535
O -0.474038 2.19623 0.454347
C 0.453962 2.12923 1.31235
H 0.592962 2.98323 2.02635
