15
Coordinates from XML
N -0.163653 -0.682464 -1.21912
C -1.00665 -1.84846 -1.00612
H -0.696653 0.219536 -1.09812
H 0.366347 -0.601464 -2.08312
H 0.512347 -0.526464 -0.424122
H -1.73465 -1.87846 -1.82112
H -1.52865 -1.70946 -0.0551225
C -0.145653 -3.09246 -0.985122
H 0.397347 -3.21346 -1.92912
H -0.767653 -3.98046 -0.835122
H 0.587347 -3.05146 -0.173122
O 1.25123 1.1753 1.44146
O -0.455773 2.2383 0.500465
C 0.472227 2.1713 1.35846
H 0.611227 3.0253 2.07246
