15
Coordinates from XML
N -0.1696 -0.696161 -1.23414
C -1.0126 -1.86216 -1.02114
H -0.7026 0.205839 -1.11314
H 0.3604 -0.615161 -2.09814
H 0.5064 -0.540161 -0.439139
H -1.7406 -1.89216 -1.83614
H -1.5346 -1.72316 -0.0701386
C -0.1516 -3.10616 -1.00014
H 0.3914 -3.22716 -1.94414
H -0.7736 -3.99416 -0.850139
H 0.5814 -3.06516 -0.188139
O 1.25732 1.18932 1.45684
O -0.449685 2.25232 0.515837
C 0.478315 2.18532 1.37384
H 0.617315 3.03932 2.08784
