15
Coordinates from XML
N -0.175547 -0.709859 -1.24915
C -1.01855 -1.87586 -1.03615
H -0.708547 0.192141 -1.12815
H 0.354453 -0.628859 -2.11315
H 0.500453 -0.553859 -0.454155
H -1.74655 -1.90586 -1.85115
H -1.54055 -1.73686 -0.0851548
C -0.157547 -3.11986 -1.01515
H 0.385453 -3.24086 -1.95915
H -0.779547 -4.00786 -0.865155
H 0.575453 -3.07886 -0.203155
O 1.2634 1.20334 1.47221
O -0.443596 2.26634 0.53121
C 0.484404 2.19934 1.38921
H 0.623404 3.05334 2.10321
