15
Coordinates from XML
N -0.181495 -0.723556 -1.26417
C -1.02449 -1.88956 -1.05117
H -0.714495 0.178444 -1.14317
H 0.348505 -0.642556 -2.12817
H 0.494505 -0.567556 -0.469171
H -1.75249 -1.91956 -1.86617
H -1.54649 -1.75056 -0.100171
C -0.163495 -3.13356 -1.03017
H 0.379505 -3.25456 -1.97417
H -0.785495 -4.02156 -0.880171
H 0.569505 -3.09256 -0.218171
O 1.26949 1.21737 1.48758
O -0.437508 2.28037 0.546582
C 0.490492 2.21337 1.40458
H 0.629492 3.06737 2.11858
