15
Coordinates from XML
N -0.187442 -0.737254 -1.27919
C -1.03044 -1.90325 -1.06619
H -0.720442 0.164746 -1.15819
H 0.342558 -0.656254 -2.14319
H 0.488558 -0.581254 -0.484187
H -1.75844 -1.93325 -1.88119
H -1.55244 -1.76425 -0.115187
C -0.169442 -3.14725 -1.04519
H 0.373558 -3.26825 -1.98919
H -0.791442 -4.03525 -0.895187
H 0.563558 -3.10625 -0.233187
O 1.27558 1.23139 1.50296
O -0.43142 2.29439 0.561955
C 0.49658 2.22739 1.41996
H 0.63558 3.08139 2.13396
