15
Coordinates from XML
N -0.205284 -0.778346 -1.32424
C -1.04828 -1.94435 -1.11124
H -0.738284 0.123654 -1.20324
H 0.324716 -0.697346 -2.18824
H 0.470716 -0.622346 -0.529235
H -1.77628 -1.97435 -1.92624
H -1.57028 -1.80535 -0.160235
C -0.187284 -3.18835 -1.09024
H 0.355716 -3.30935 -2.03424
H -0.809284 -4.07635 -0.940235
H 0.545716 -3.14735 -0.278235
O 1.29385 1.27346 1.54907
O -0.413154 2.33646 0.608073
C 0.514846 2.26946 1.46607
H 0.653846 3.12346 2.18007
