15
Coordinates from XML
N -0.211230781382 -0.79204398251 -1.339251555152
C -1.054230781382 -1.95804398251 -1.126251555152
H -0.744230781382 0.10995601749 -1.218251555152
H 0.318769218618 -0.71104398251 -2.203251555152
H 0.464769218618 -0.63604398251 -0.544251555152
H -1.782230781382 -1.98804398251 -1.941251555152
H -1.576230781382 -1.81904398251 -0.175251555152
C -0.193230781382 -3.20204398251 -1.105251555152
H 0.349769218618 -3.32304398251 -2.049251555152
H -0.815230781382 -4.09004398251 -0.955251555152
H 0.539769218618 -3.16104398251 -0.293251555152
O 1.299934063626 1.287480479521 1.564445202832
O -0.407065936374 2.350480479521 0.623445202832
C 0.520934063626 2.283480479521 1.481445202832
H 0.659934063626 3.137480479521 2.195445202832
