15
Coordinates from XML
N 1.179413056754 -0.058743423535 -0.985135228705
C 0.265625914457 -0.405168657089 -2.183502753539
H 2.147291327773 -0.335111589144 -1.165746678381
H 0.859691700551 -0.539827913854 -0.140892950624
H 1.161202520642 0.947263505053 -0.800666947976
H 0.367443118453 -1.477574318572 -2.334300830108
H 0.689918003723 0.11371306793 -3.040207239959
C -1.16917873377 0.010151374726 -1.902704673805
H -1.58830759546 -0.511396660739 -1.04083947151
H -1.784813637507 -0.246991554656 -2.764337918693
H -1.264497908174 1.0861466744 -1.748975759305
O 0.436799727868 1.05866699895 2.146176010321
O -0.927535537411 -0.501169389622 1.107865821201
C 0.07030787413 -0.11841586094 1.809147938085
H 0.73453257812 -0.954550655835 2.192333702173
