15
Coordinates from XML
N 1.17941 -0.0587434 -1.05431
C 0.265626 -0.405169 -2.25268
H 2.14729 -0.335112 -1.23493
H 0.859692 -0.539828 -0.210072
H 1.1612 0.947264 -0.869846
H 0.367443 -1.47757 -2.40348
H 0.689918 0.113713 -3.10939
C -1.16918 0.0101514 -1.97188
H -1.58831 -0.511397 -1.11002
H -1.78481 -0.246992 -2.83352
H -1.2645 1.08615 -1.81815
O 0.4368 1.05867 2.217
O -0.927536 -0.501169 1.17869
C 0.0703079 -0.118416 1.87997
H 0.734533 -0.954551 2.26315
