15
Coordinates from XML
N 1.17941 -0.0587434 -1.08396
C 0.265626 -0.405169 -2.28233
H 2.14729 -0.335112 -1.26457
H 0.859692 -0.539828 -0.23972
H 1.1612 0.947264 -0.899494
H 0.367443 -1.47757 -2.43313
H 0.689918 0.113713 -3.13903
C -1.16918 0.0101514 -2.00153
H -1.58831 -0.511397 -1.13967
H -1.78481 -0.246992 -2.86317
H -1.2645 1.08615 -1.8478
O 0.4368 1.05867 2.24735
O -0.927536 -0.501169 1.20904
C 0.0703079 -0.118416 1.91032
H 0.734533 -0.954551 2.29351
