15
Coordinates from XML
N 1.179413056754 -0.058743423535 -1.083962396559
C 0.265625914457 -0.405168657089 -2.282329921392
H 2.147291327773 -0.335111589144 -1.264573846234
H 0.859691700551 -0.539827913854 -0.239720118478
H 1.161202520642 0.947263505053 -0.899494115829
H 0.367443118453 -1.477574318572 -2.433127997961
H 0.689918003723 0.11371306793 -3.139034407812
C -1.16917873377 0.010151374726 -2.001531841658
H -1.58830759546 -0.511396660739 -1.139666639363
H -1.784813637507 -0.246991554656 -2.863165086546
H -1.264497908174 1.0861466744 -1.847802927159
O 0.436799727868 1.05866699895 2.247348842467
O -0.927535537411 -0.501169389622 1.209038653348
C 0.07030787413 -0.11841586094 1.910320770232
H 0.73453257812 -0.954550655835 2.29350653432
