15
Coordinates from XML
N 1.17941 -0.0587434 -1.15314
C 0.265626 -0.405169 -2.35151
H 2.14729 -0.335112 -1.33375
H 0.859692 -0.539828 -0.308899
H 1.1612 0.947264 -0.968673
H 0.367443 -1.47757 -2.50231
H 0.689918 0.113713 -3.20821
C -1.16918 0.0101514 -2.07071
H -1.58831 -0.511397 -1.20885
H -1.78481 -0.246992 -2.93234
H -1.2645 1.08615 -1.91698
O 0.4368 1.05867 2.31817
O -0.927536 -0.501169 1.27986
C 0.0703079 -0.118416 1.98114
H 0.734533 -0.954551 2.36433
