15
Coordinates from XML
N 1.179413056754 -0.058743423535 -1.153141414056
C 0.265625914457 -0.405168657089 -2.351508938889
H 2.147291327773 -0.335111589144 -1.333752863732
H 0.859691700551 -0.539827913854 -0.308899135975
H 1.161202520642 0.947263505053 -0.968673133326
H 0.367443118453 -1.477574318572 -2.502307015458
H 0.689918003723 0.11371306793 -3.20821342531
C -1.16917873377 0.010151374726 -2.070710859155
H -1.58830759546 -0.511396660739 -1.208845656861
H -1.784813637507 -0.246991554656 -2.932344104043
H -1.264497908174 1.0861466744 -1.916981944656
O 0.436799727868 1.05866699895 2.31816982497
O -0.927535537411 -0.501169389622 1.27985963585
C 0.07030787413 -0.11841586094 1.981141752734
H 0.73453257812 -0.954550655835 2.364327516823
