15
Coordinates from XML
N 1.179413056754 -0.058743423535 -1.232203148339
C 0.265625914457 -0.405168657089 -2.430570673172
H 2.147291327773 -0.335111589144 -1.412814598014
H 0.859691700551 -0.539827913854 -0.387960870257
H 1.161202520642 0.947263505053 -1.047734867609
H 0.367443118453 -1.477574318572 -2.581368749741
H 0.689918003723 0.11371306793 -3.287275159592
C -1.16917873377 0.010151374726 -2.149772593438
H -1.58830759546 -0.511396660739 -1.287907391143
H -1.784813637507 -0.246991554656 -3.011405838326
H -1.264497908174 1.0861466744 -1.996043678939
O 0.436799727868 1.05866699895 2.399108090688
O -0.927535537411 -0.501169389622 1.360797901568
C 0.07030787413 -0.11841586094 2.062080018452
H 0.73453257812 -0.954550655835 2.44526578254
