15
Coordinates from XML
N 1.17941 -0.0587434 -1.2322
C 0.265626 -0.405169 -2.43057
H 2.14729 -0.335112 -1.41281
H 0.859692 -0.539828 -0.387961
H 1.1612 0.947264 -1.04773
H 0.367443 -1.47757 -2.58137
H 0.689918 0.113713 -3.28728
C -1.16918 0.0101514 -2.14977
H -1.58831 -0.511397 -1.28791
H -1.78481 -0.246992 -3.01141
H -1.2645 1.08615 -1.99604
O 0.4368 1.05867 2.39911
O -0.927536 -0.501169 1.3608
C 0.0703079 -0.118416 2.06208
H 0.734533 -0.954551 2.44527
