15
Coordinates from XML
N 1.17941 -0.0587434 -1.2915
C 0.265626 -0.405169 -2.48987
H 2.14729 -0.335112 -1.47211
H 0.859692 -0.539828 -0.447257
H 1.1612 0.947264 -1.10703
H 0.367443 -1.47757 -2.64067
H 0.689918 0.113713 -3.34657
C -1.16918 0.0101514 -2.20907
H -1.58831 -0.511397 -1.3472
H -1.78481 -0.246992 -3.0707
H -1.2645 1.08615 -2.05534
O 0.4368 1.05867 2.45981
O -0.927536 -0.501169 1.4215
C 0.0703079 -0.118416 2.12278
H 0.734533 -0.954551 2.50597
