15
Coordinates from XML
N 1.179413056754 -0.058743423535 -1.291499449051
C 0.265625914457 -0.405168657089 -2.489866973884
H 2.147291327773 -0.335111589144 -1.472110898726
H 0.859691700551 -0.539827913854 -0.447257170969
H 1.161202520642 0.947263505053 -1.107031168321
H 0.367443118453 -1.477574318572 -2.640665050453
H 0.689918003723 0.11371306793 -3.346571460304
C -1.16917873377 0.010151374726 -2.20906889415
H -1.58830759546 -0.511396660739 -1.347203691855
H -1.784813637507 -0.246991554656 -3.070702139038
H -1.264497908174 1.0861466744 -2.055339979651
O 0.436799727868 1.05866699895 2.459811789976
O -0.927535537411 -0.501169389622 1.421501600856
C 0.07030787413 -0.11841586094 2.12278371774
H 0.73453257812 -0.954550655835 2.505969481828
