15
Coordinates from XML
N 1.17941 -0.0587434 -1.48915
C 0.265626 -0.405169 -2.68752
H 2.14729 -0.335112 -1.66977
H 0.859692 -0.539828 -0.644912
H 1.1612 0.947264 -1.30469
H 0.367443 -1.47757 -2.83832
H 0.689918 0.113713 -3.54423
C -1.16918 0.0101514 -2.40672
H -1.58831 -0.511397 -1.54486
H -1.78481 -0.246992 -3.26836
H -1.2645 1.08615 -2.25299
O 0.4368 1.05867 2.66216
O -0.927536 -0.501169 1.62385
C 0.0703079 -0.118416 2.32513
H 0.734533 -0.954551 2.70832
