15
Coordinates from XML
N 1.17941 -0.0587434 -1.54845
C 0.265626 -0.405169 -2.74682
H 2.14729 -0.335112 -1.72906
H 0.859692 -0.539828 -0.704208
H 1.1612 0.947264 -1.36398
H 0.367443 -1.47757 -2.89762
H 0.689918 0.113713 -3.60352
C -1.16918 0.0101514 -2.46602
H -1.58831 -0.511397 -1.60415
H -1.78481 -0.246992 -3.32765
H -1.2645 1.08615 -2.31229
O 0.4368 1.05867 2.72286
O -0.927536 -0.501169 1.68455
C 0.0703079 -0.118416 2.38583
H 0.734533 -0.954551 2.76902
