15
Coordinates from XML
N 1.179413056754 -0.058743423535 -1.607746386181
C 0.265625914457 -0.405168657089 -2.806113911015
H 2.147291327773 -0.335111589144 -1.788357835857
H 0.859691700551 -0.539827913854 -0.7635041081
H 1.161202520642 0.947263505053 -1.423278105451
H 0.367443118453 -1.477574318572 -2.956911987584
H 0.689918003723 0.11371306793 -3.662818397435
C -1.16917873377 0.010151374726 -2.525315831281
H -1.58830759546 -0.511396660739 -1.663450628986
H -1.784813637507 -0.246991554656 -3.386949076169
H -1.264497908174 1.0861466744 -2.371586916781
O 0.436799727868 1.05866699895 2.783564852845
O -0.927535537411 -0.501169389622 1.745254663725
C 0.07030787413 -0.11841586094 2.446536780609
H 0.73453257812 -0.954550655835 2.829722544697
