15
Coordinates from XML
N 1.179413056754 -0.058743423535 -1.667042686893
C 0.265625914457 -0.405168657089 -2.865410211727
H 2.147291327773 -0.335111589144 -1.847654136569
H 0.859691700551 -0.539827913854 -0.822800408812
H 1.161202520642 0.947263505053 -1.482574406163
H 0.367443118453 -1.477574318572 -3.016208288296
H 0.689918003723 0.11371306793 -3.722114698147
C -1.16917873377 0.010151374726 -2.584612131993
H -1.58830759546 -0.511396660739 -1.722746929698
H -1.784813637507 -0.246991554656 -3.446245376881
H -1.264497908174 1.0861466744 -2.430883217493
O 0.436799727868 1.05866699895 2.844268552133
O -0.927535537411 -0.501169389622 1.805958363013
C 0.07030787413 -0.11841586094 2.507240479897
H 0.73453257812 -0.954550655835 2.890426243985
