15
Coordinates from XML
N 1.17941 -0.0587434 -1.72634
C 0.265626 -0.405169 -2.92471
H 2.14729 -0.335112 -1.90695
H 0.859692 -0.539828 -0.882097
H 1.1612 0.947264 -1.54187
H 0.367443 -1.47757 -3.0755
H 0.689918 0.113713 -3.78141
C -1.16918 0.0101514 -2.64391
H -1.58831 -0.511397 -1.78204
H -1.78481 -0.246992 -3.50554
H -1.2645 1.08615 -2.49018
O 0.4368 1.05867 2.90497
O -0.927536 -0.501169 1.86666
C 0.0703079 -0.118416 2.56794
H 0.734533 -0.954551 2.95113
