15
Coordinates from XML
N 0.732246 -0.0209729 -0.931195
C 0.561811 -0.0527494 -2.46776
H 1.70719 -0.175039 -0.663724
H 0.15988 -0.746703 -0.492876
H 0.435129 0.883563 -0.5571
H 0.928709 -1.02564 -2.78718
H 1.22306 0.718812 -2.8559
C -0.890585 0.177173 -2.85206
H -1.54922 -0.598147 -2.45764
H -0.975738 0.149052 -3.93811
H -1.25391 1.15301 -2.52615
O 0.569058 -0.33546 2.94528
O -1.12666 0.191309 1.45543
C 0.0884927 0.0391037 1.82181
H 0.86131 0.273176 1.02487
