15
Coordinates from XML
N 0.732245570109 -0.020972928648 -1.217793751206
C 0.561811228812 -0.0527493716 -2.754362819431
H 1.707187220712 -0.175039337921 -0.95032314407
H 0.159880311993 -0.746702637699 -0.779474852183
H 0.435128554219 0.883562695412 -0.843698984787
H 0.928709226067 -1.0256434949 -3.073774137583
H 1.223058903383 0.718811918845 -3.142498474307
C -0.890585014349 0.177173259176 -3.138658806518
H -1.549224672618 -0.598146644039 -2.744240461156
H -0.975738263421 0.149052325132 -4.224706138253
H -1.253911358445 1.153010567652 -2.812745130591
O 0.569058490091 -0.335459546051 3.238680141005
O -1.126656842987 0.191309176682 1.748830300939
C 0.088492695952 0.039103660704 2.115209099532
H 0.86130991384 0.273176290996 1.318270749402
