15
Coordinates from XML
N 0.375465 0.630467 -3.4673
C 0.647539 0.178369 -2.01379
H 1.21539 1.02746 -3.89474
H -0.362204 1.33882 -3.48928
H 0.0685569 -0.161971 -4.03674
H 0.999173 1.06351 -1.48839
H 1.45994 -0.542443 -2.07415
C -0.607714 -0.409267 -1.39007
H -1.41976 0.317386 -1.33483
H -0.382241 -0.717202 -0.369345
H -0.957521 -1.29462 -1.92324
O 0.103595 -0.592903 1.34221
O -0.616004 -0.00295838 3.46511
C 0.0853212 0.119108 2.4034
H 0.804041 0.99694 2.40315
