15
Coordinates from XML
N 0.375465 0.630467 -3.55624
C 0.647539 0.178369 -2.10273
H 1.21539 1.02746 -3.98369
H -0.362204 1.33882 -3.57822
H 0.0685569 -0.161971 -4.12568
H 0.999173 1.06351 -1.57733
H 1.45994 -0.542443 -2.16309
C -0.607714 -0.409267 -1.47901
H -1.41976 0.317386 -1.42377
H -0.382241 -0.717202 -0.458289
H -0.957521 -1.29462 -2.01218
O 0.103595 -0.592903 1.43326
O -0.616004 -0.00295838 3.55617
C 0.0853212 0.119108 2.49446
H 0.804041 0.99694 2.4942
