15
Coordinates from XML
N 0.375464776063 0.630466913045 -3.556241933588
C 0.647538828061 0.1783693731 -2.102733889906
H 1.215388611628 1.027464183132 -3.983687046111
H -0.362204413247 1.338824238278 -3.57822200342
H 0.068556896338 -0.161970578436 -4.125680680115
H 0.999172894798 1.063505279003 -1.577330600139
H 1.459937017316 -0.542443220093 -2.163091045364
C -0.607713891675 -0.409267061775 -1.479013841338
H -1.419758364092 0.317386258461 -1.423771557408
H -0.382240692349 -0.717201877625 -0.458289267764
H -0.957521372382 -1.294619567024 -2.012183492551
O 0.103595127341 -0.59290304494 1.433262752003
O -0.61600419607 -0.002958378368 3.55616887997
C 0.085321178792 0.119108065711 2.494457597681
H 0.804040722831 0.996940244894 2.494203367545
