15
Coordinates from XML
N 0.375465 0.630467 -3.67483
C 0.647539 0.178369 -2.22133
H 1.21539 1.02746 -4.10228
H -0.362204 1.33882 -3.69681
H 0.0685569 -0.161971 -4.24427
H 0.999173 1.06351 -1.69592
H 1.45994 -0.542443 -2.28168
C -0.607714 -0.409267 -1.59761
H -1.41976 0.317386 -1.54236
H -0.382241 -0.717202 -0.576882
H -0.957521 -1.29462 -2.13078
O 0.103595 -0.592903 1.55467
O -0.616004 -0.00295838 3.67758
C 0.0853212 0.119108 2.61586
H 0.804041 0.99694 2.61561
