15
Coordinates from XML
N -0.539428 0.256698 -3.53005
C -0.331305 0.558459 -2.02781
H -1.01889 1.02836 -3.99956
H -1.09954 -0.590786 -3.65026
H 0.360588 0.107961 -3.99293
H -1.324 0.736624 -1.6204
H 0.238461 1.48415 -1.98703
C 0.38164 -0.595294 -1.34183
H -0.193237 -1.52149 -1.38844
H 0.512468 -0.351145 -0.287876
H 1.37522 -0.77139 -1.75689
O 0.743619 -0.281268 3.42308
O -0.0625538 0.0344143 1.27296
C -0.136398 0.0271513 2.54908
H -1.14031 0.344121 2.97196
