15
Coordinates from XML
N -0.539428 0.256698 -3.54981
C -0.331305 0.558459 -2.04757
H -1.01889 1.02836 -4.01933
H -1.09954 -0.590786 -3.67002
H 0.360588 0.107961 -4.01269
H -1.324 0.736624 -1.64017
H 0.238461 1.48415 -2.00679
C 0.38164 -0.595294 -1.36159
H -0.193237 -1.52149 -1.40821
H 0.512468 -0.351145 -0.307641
H 1.37522 -0.77139 -1.77666
O 0.743619 -0.281268 3.44331
O -0.0625538 0.0344143 1.29319
C -0.136398 0.0271513 2.56931
H -1.14031 0.344121 2.99219
