15
Coordinates from XML
N -0.539428328477 0.256698468542 -3.599227160455
C -0.331304997921 0.558458601779 -2.096986297707
H -1.01889208369 1.028358406264 -4.068741435188
H -1.099542757753 -0.590786197829 -3.719437904242
H 0.360587823166 0.107960989561 -4.062107490256
H -1.323997876294 0.736624310488 -1.689581664482
H 0.238461217901 1.48415187919 -2.056206227949
C 0.381639548217 -0.595294238266 -1.41100734234
H -0.193236984609 -1.521489193488 -1.457621287158
H 0.512467742469 -0.351144747441 -0.357054933906
H 1.375218153982 -0.771389722495 -1.826068956661
O 0.743618656314 -0.281268491843 3.493896914443
O -0.062553811372 0.03441428191 1.343776298587
C -0.136397640673 0.027151342041 2.619896466798
H -1.140313947182 0.344120524731 3.042779156411
