15
Coordinates from XML
N -0.539428 0.256698 -3.59923
C -0.331305 0.558459 -2.09699
H -1.01889 1.02836 -4.06874
H -1.09954 -0.590786 -3.71944
H 0.360588 0.107961 -4.06211
H -1.324 0.736624 -1.68958
H 0.238461 1.48415 -2.05621
C 0.38164 -0.595294 -1.41101
H -0.193237 -1.52149 -1.45762
H 0.512468 -0.351145 -0.357055
H 1.37522 -0.77139 -1.82607
O 0.743619 -0.281268 3.4939
O -0.0625538 0.0344143 1.34378
C -0.136398 0.0271513 2.6199
H -1.14031 0.344121 3.04278
