15
Coordinates from XML
N -0.539428 0.256698 -3.61899
C -0.331305 0.558459 -2.11675
H -1.01889 1.02836 -4.08851
H -1.09954 -0.590786 -3.7392
H 0.360588 0.107961 -4.08187
H -1.324 0.736624 -1.70935
H 0.238461 1.48415 -2.07597
C 0.38164 -0.595294 -1.43077
H -0.193237 -1.52149 -1.47739
H 0.512468 -0.351145 -0.37682
H 1.37522 -0.77139 -1.84583
O 0.743619 -0.281268 3.51413
O -0.0625538 0.0344143 1.36401
C -0.136398 0.0271513 2.64013
H -1.14031 0.344121 3.06301
