15
Coordinates from XML
N -0.539428328477 0.256698468542 -3.638758027597
C -0.331304997921 0.558458601779 -2.136517164848
H -1.01889208369 1.028358406264 -4.10827230233
H -1.099542757753 -0.590786197829 -3.758968771383
H 0.360587823166 0.107960989561 -4.101638357397
H -1.323997876294 0.736624310488 -1.729112531623
H 0.238461217901 1.48415187919 -2.095737095091
C 0.381639548217 -0.595294238266 -1.450538209482
H -0.193236984609 -1.521489193488 -1.4971521543
H 0.512467742469 -0.351144747441 -0.396585801047
H 1.375218153982 -0.771389722495 -1.865599823802
O 0.743618656314 -0.281268491843 3.534366047301
O -0.062553811372 0.03441428191 1.384245431445
C -0.136397640673 0.027151342041 2.660365599656
H -1.140313947182 0.344120524731 3.08324828927
