15
Coordinates from XML
N -0.539428328477 0.256698468542 -3.658523461167
C -0.331304997921 0.558458601779 -2.156282598419
H -1.01889208369 1.028358406264 -4.1280377359
H -1.099542757753 -0.590786197829 -3.778734204953
H 0.360587823166 0.107960989561 -4.121403790968
H -1.323997876294 0.736624310488 -1.748877965194
H 0.238461217901 1.48415187919 -2.115502528661
C 0.381639548217 -0.595294238266 -1.470303643052
H -0.193236984609 -1.521489193488 -1.51691758787
H 0.512467742469 -0.351144747441 -0.416351234618
H 1.375218153982 -0.771389722495 -1.885365257373
O 0.743618656314 -0.281268491843 3.554600613731
O -0.062553811372 0.03441428191 1.404479997875
C -0.136397640673 0.027151342041 2.680600166086
H -1.140313947182 0.344120524731 3.103482855699
