15
Coordinates from XML
N -0.539428 0.256698 -3.67829
C -0.331305 0.558459 -2.17605
H -1.01889 1.02836 -4.1478
H -1.09954 -0.590786 -3.7985
H 0.360588 0.107961 -4.14117
H -1.324 0.736624 -1.76864
H 0.238461 1.48415 -2.13527
C 0.38164 -0.595294 -1.49007
H -0.193237 -1.52149 -1.53668
H 0.512468 -0.351145 -0.436117
H 1.37522 -0.77139 -1.90513
O 0.743619 -0.281268 3.57484
O -0.0625538 0.0344143 1.42471
C -0.136398 0.0271513 2.70083
H -1.14031 0.344121 3.12372
