15
Coordinates from XML
N -0.539428 0.256698 -3.71782
C -0.331305 0.558459 -2.21558
H -1.01889 1.02836 -4.18733
H -1.09954 -0.590786 -3.83803
H 0.360588 0.107961 -4.1807
H -1.324 0.736624 -1.80817
H 0.238461 1.48415 -2.1748
C 0.38164 -0.595294 -1.5296
H -0.193237 -1.52149 -1.57621
H 0.512468 -0.351145 -0.475648
H 1.37522 -0.77139 -1.94466
O 0.743619 -0.281268 3.6153
O -0.0625538 0.0344143 1.46518
C -0.136398 0.0271513 2.7413
H -1.14031 0.344121 3.16419
