15
Coordinates from XML
N -0.21788613318 -0.397826114979 -3.409701938277
C 0.44905561719 0.087705945774 -2.101822193026
H 0.453034405868 -0.419926211354 -4.181171589171
H -0.987651504582 0.223342248223 -3.670508752002
H -0.599684158862 -1.339056746617 -3.288354189062
H 0.855795097401 1.071870782934 -2.323505016544
H 1.270787624623 -0.599947280506 -1.914487874305
C -0.557898514983 0.116195518173 -0.963738545421
H -1.381031739211 0.805390087859 -1.158560318365
H -0.05708342987 0.461414841345 -0.059554637713
H -0.964842234177 -0.87297304418 -0.748270279211
O 0.966100308918 -0.137150543601 1.476431723829
O -0.430182463796 0.464840020536 3.225885953965
C -0.147033363639 -0.07236445309 2.101063174264
H -1.020668106859 -0.569437741419 1.574919026816
