15
Coordinates from XML
N -0.21788613318 -0.397826114979 -3.439350088633
C 0.44905561719 0.087705945774 -2.131470343382
H 0.453034405868 -0.419926211354 -4.210819739527
H -0.987651504582 0.223342248223 -3.700156902358
H -0.599684158862 -1.339056746617 -3.318002339418
H 0.855795097401 1.071870782934 -2.3531531669
H 1.270787624623 -0.599947280506 -1.944136024661
C -0.557898514983 0.116195518173 -0.993386695777
H -1.381031739211 0.805390087859 -1.18820846872
H -0.05708342987 0.461414841345 -0.089202788069
H -0.964842234177 -0.87297304418 -0.777918429567
O 0.966100308918 -0.137150543601 1.506783573473
O -0.430182463796 0.464840020536 3.256237803609
C -0.147033363639 -0.07236445309 2.131415023908
H -1.020668106859 -0.569437741419 1.60527087646
