15
Coordinates from XML
N -0.217886 -0.397826 -3.45912
C 0.449056 0.0877059 -2.15124
H 0.453034 -0.419926 -4.23059
H -0.987652 0.223342 -3.71992
H -0.599684 -1.33906 -3.33777
H 0.855795 1.07187 -2.37292
H 1.27079 -0.599947 -1.9639
C -0.557899 0.116196 -1.01315
H -1.38103 0.80539 -1.20797
H -0.0570834 0.461415 -0.108968
H -0.964842 -0.872973 -0.797684
O 0.9661 -0.137151 1.52702
O -0.430182 0.46484 3.27647
C -0.147033 -0.0723645 2.15165
H -1.02067 -0.569438 1.62551
