15
Coordinates from XML
N -0.217886 -0.397826 -3.48876
C 0.449056 0.0877059 -2.18088
H 0.453034 -0.419926 -4.26023
H -0.987652 0.223342 -3.74957
H -0.599684 -1.33906 -3.36742
H 0.855795 1.07187 -2.40257
H 1.27079 -0.599947 -1.99355
C -0.557899 0.116196 -1.0428
H -1.38103 0.80539 -1.23762
H -0.0570834 0.461415 -0.138616
H -0.964842 -0.872973 -0.827332
O 0.9661 -0.137151 1.55737
O -0.430182 0.46484 3.30682
C -0.147033 -0.0723645 2.182
H -1.02067 -0.569438 1.65586
