15
Coordinates from XML
N -0.21788613318 -0.397826114979 -3.508529106131
C 0.44905561719 0.087705945774 -2.20064936088
H 0.453034405868 -0.419926211354 -4.279998757024
H -0.987651504582 0.223342248223 -3.769335919856
H -0.599684158862 -1.339056746617 -3.387181356915
H 0.855795097401 1.071870782934 -2.422332184397
H 1.270787624623 -0.599947280506 -2.013315042159
C -0.557898514983 0.116195518173 -1.062565713274
H -1.381031739211 0.805390087859 -1.257387486218
H -0.05708342987 0.461414841345 -0.158381805566
H -0.964842234177 -0.87297304418 -0.847097447064
O 0.966100308918 -0.137150543601 1.577604555975
O -0.430182463796 0.464840020536 3.327058786111
C -0.147033363639 -0.07236445309 2.202236006411
H -1.020668106859 -0.569437741419 1.676091858963
