15
Coordinates from XML
N -0.21788613318 -0.397826114979 -3.557942690057
C 0.44905561719 0.087705945774 -2.250062944806
H 0.453034405868 -0.419926211354 -4.329412340951
H -0.987651504582 0.223342248223 -3.818749503782
H -0.599684158862 -1.339056746617 -3.436594940842
H 0.855795097401 1.071870782934 -2.471745768324
H 1.270787624623 -0.599947280506 -2.062728626085
C -0.557898514983 0.116195518173 -1.111979297201
H -1.381031739211 0.805390087859 -1.306801070144
H -0.05708342987 0.461414841345 -0.207795389493
H -0.964842234177 -0.87297304418 -0.896511030991
O 0.966100308918 -0.137150543601 1.628190972049
O -0.430182463796 0.464840020536 3.377645202185
C -0.147033363639 -0.07236445309 2.252822422484
H -1.020668106859 -0.569437741419 1.726678275036
