15
Coordinates from XML
N -0.103376 0.752771 -1.21783
C -0.0935918 0.294075 -2.69452
H 0.0461781 1.76162 -1.14269
H 0.633976 0.278141 -0.691095
H -0.999439 0.526845 -0.77915
H 0.871041 0.59928 -3.09388
H -0.876783 0.865229 -3.18807
C -0.316575 -1.20615 -2.79255
H 0.470447 -1.77353 -2.29338
H -0.30431 -1.49566 -3.84306
H -1.28408 -1.50663 -2.38743
O 0.234513 -0.134062 1.07192
O 0.45604 0.290473 3.3398
C -0.164525 -0.0781043 2.2848
H -1.23749 -0.407036 2.45124
