15
Coordinates from XML
N 0.204014 -0.476786 -3.39347
C 0.0951746 -0.543869 -1.85244
H 0.125915 -1.40711 -3.81083
H 1.10233 -0.0739563 -3.67127
H -0.538226 0.112118 -3.77906
H 0.890952 -1.21033 -1.52728
H -0.864463 -1.01105 -1.64259
C 0.212831 0.844196 -1.24463
H 1.17613 1.30875 -1.46082
H 0.131991 0.761679 -0.161029
H -0.585927 1.50902 -1.57702
O -0.0582584 0.457996 3.37679
O -0.643622 -0.237577 1.24463
C 0.163879 -0.0137613 2.20994
H 1.24735 -0.27478 1.99757
