15
Coordinates from XML
N 0.204014165719 -0.476786242789 -3.393467082682
C 0.095174603748 -0.543869341585 -1.852442775265
H 0.125914919434 -1.407107788612 -3.810828479237
H 1.102325229455 -0.073956262493 -3.671269703765
H -0.538226278249 0.112118125029 -3.77905867944
H 0.890951861929 -1.210328713938 -1.527279483867
H -0.864463375468 -1.011052219538 -1.642586381465
C 0.212831202258 0.84419619367 -1.244632226125
H 1.176130432047 1.308750228679 -1.460819934777
H 0.131991002507 0.761678509676 -0.161028809991
H -0.58592652164 1.509020243886 -1.577016476429
O -0.058258410477 0.457995548168 3.376789964958
O -0.643621866659 -0.237576780193 1.244627427951
C 0.163879297666 -0.013761271444 2.209944387707
H 1.247352703739 -0.274780139447 1.997572752822
