56
Coordinates from XML
Na 0.0 0.0 -1.568929719736
Cl 0.0 0.0 1.031470280264
Na 0.0 0.0 -1.6815323312
Cl 0.0 0.0 1.105499247747
Na 0.0 0.0 -1.764107579608
Cl 0.0 0.0 1.159787157234
Na 0.0 0.0 -1.816655464958
Cl 0.0 0.0 1.194334008727
Na 0.0 0.0 -1.839175987251
Cl 0.0 0.0 1.209139802223
Na 0.0 0.0 -1.831669146486
Cl 0.0 0.0 1.204204537724
Na 0.0 0.0 -1.794134942665
Cl 0.0 0.0 1.17952821523
Na 0.0 0.0 -1.726573375786
Cl 0.0 0.0 1.13511083474
Na 0.0 0.0 -1.62898444585
Cl 0.0 0.0 1.070952396255
Na 0.0 0.0 -1.501368152858
Cl 0.0 0.0 0.987052899774
Na 0.0 0.0 -1.711559694258
Cl 0.0 0.0 1.125240305742
Na 0.0 0.0 -1.92550465604
Cl 0.0 0.0 1.26589534396
Na 0.0 0.0 -2.068134630561
Cl 0.0 0.0 1.359665369439
Na 0.0 0.0 -2.139449617822
Cl 0.0 0.0 1.406550382178
Na 0.0 0.0 1.782874681518
Cl 0.0 0.0 -1.172125318482
Na 0.0 0.0 2.567339541386
Cl 0.0 0.0 -1.687860458614
Na 0.0 0.0 3.423119388515
Cl 0.0 0.0 -2.250480611485
Na 0.0 0.0 -1.673719088772
Cl 0.0 0.0 1.100362543881
Na 0.0 0.0 -1.740667852323
Cl 0.0 0.0 1.144377045636
Na 0.0 0.0 -1.769776010389
Cl 0.0 0.0 1.16351378553
Na 0.0 0.0 -1.761043562969
Cl 0.0 0.0 1.157772763561
Na 0.0 0.0 -1.714470510064
Cl 0.0 0.0 1.127153979732
Na 0.0 0.0 -1.630056851674
Cl 0.0 0.0 1.07165743404
Na 0.0 0.0 -1.507802587798
Cl 0.0 0.0 0.991283126487
Na 0.0 0.0 1.795973352648
Cl 0.0 0.0 -1.180736851434
Na 0.0 0.0 2.334474276862
Cl 0.0 0.0 -1.534766539465
Na 0.0 0.0 2.910815806561
Cl 0.0 0.0 -1.913673989358
Na 0.0 0.0 3.524997941745
Cl 0.0 0.0 -2.317459201112
