12
Coordinates from XML
N -0.012869372263 -0.581854136094 -1.934202279852
C 0.014754909421 0.666154852863 -2.721026378709
H -0.958772033711 -0.984393308011 -1.90308781156
H 0.286482039227 -0.419666231923 -0.963654070756
H 0.61275302785 -1.292334341755 -2.336363428947
H -0.665362022986 1.375574691654 -2.245893786076
H -0.311430299022 0.428713368253 -3.735415732547
H 1.039892069238 1.04144451854 -2.716021341495
O -0.801945886013 -0.815804573011 1.447489897017
O 0.609781537532 0.985418468628 1.587322210446
C 0.188092634492 -0.165814402916 1.876747752735
H 0.809765491585 -0.714217155157 2.662930644998
