12
Coordinates from XML
N 0.075173539189 -0.002759024462 -3.592241947503
C -0.086056724727 0.003195082958 -2.125493485563
H -0.534076898793 -0.704150163348 -4.033379243715
H 1.043532335608 -0.22055989171 -3.861915886963
H -0.161006922194 0.911980411423 -3.998923215942
H 0.178195694038 -0.989573044452 -1.756483141025
H -1.128875803788 0.239234430769 -1.905096560377
H 0.583031147293 0.76407013045 -1.719089546584
O -0.448184337645 -0.660540899067 2.913201958006
O 0.352866884213 0.382122745016 1.034877889783
C 0.093271035665 0.272510669137 2.262689352605
H 0.401570555125 1.173249969507 2.894295542466
