12
Coordinates from XML
N 0.247544540267 0.588212455213 -2.814949172846
C -0.283453221029 -0.673424919253 -2.263864594175
H 1.178666948532 0.453200465773 -3.230305120838
H 0.335483457641 1.308074733303 -2.085603536406
H -0.367052593066 0.964651233093 -3.548763393346
H 0.409509050366 -1.019688908802 -1.494780027976
H -0.352726934326 -1.392417673362 -3.082406946276
H -1.267738959741 -0.464712281185 -1.840315070177
O -0.415567373848 -0.566247452137 2.745135772581
O 0.668185487438 0.321400230702 0.930061898931
C -0.24733348191 0.239456022375 1.791476992533
H -1.064857962267 1.031158940911 1.690648064147
