12
Coordinates from XML
N 0.117610563087 -0.094153279348 -3.626411712854
C -0.13470291427 0.107813566147 -2.18664471696
H 1.058870334009 0.225375269204 -3.890361121461
H -0.558247301864 0.425470748646 -4.201813334259
H 0.044329725642 -1.087222766649 -3.884019966321
H -0.042822285297 1.175352606593 -1.978066489085
H 0.611089669203 -0.465969979195 -1.63317667314
H -1.143708163604 -0.248921724086 -1.971187251274
O -0.260715536937 0.270526366849 3.202303697501
O 0.583364222796 -0.299255821418 1.148086217013
C -0.315834745343 0.028149059842 1.96733774092
H -1.359828393012 0.121188085024 1.512665041695
