12
Coordinates from XML
N 0.042724007542 0.414070577111 -3.876647838155
C -0.048867118727 -0.474097797351 -2.701850109099
H -0.880957271205 0.570749556717 -4.300914655903
H 0.652627171756 0.01434755175 -4.601988891231
H 0.426405894488 1.333804525898 -3.622095735278
H -0.460596651098 -1.428281485276 -3.035914192578
H -0.706158904233 0.003371791491 -1.972637307212
H 0.958023957812 -0.600313967247 -2.299341204299
O -0.0218952505 0.217617031415 3.510226630966
O -0.324217304807 -0.157955233736 1.268691735158
C 0.33874880125 -0.058533503509 2.335236184197
H 1.458519364688 -0.251845981071 2.216701669072
