12
Coordinates from XML
N -0.002753203311 0.062173965955 -1.931291569455
C 0.003202686193 -0.071169588062 -3.400837663996
H -0.821166223156 0.593656021331 -1.606538288085
H 0.837225931617 0.551996435865 -1.596046866503
H -0.02874932724 -0.857594212391 -1.471650623016
H 0.031173291798 0.933344789089 -3.82716505148
H -0.908545449613 -0.596104632584 -3.69224724841
H 0.891036568331 -0.641383116752 -3.680803928794
O 0.162916495684 0.294280862719 0.753427484631
O -0.496839472565 -0.31995963479 2.861593159709
C 0.326832089075 0.025111161246 1.973101682953
H 1.407211615461 0.108168399839 2.335300294328
