12
Coordinates from XML
N -0.20598050581 0.275617897737 -3.457434565865
C 0.235831976372 -0.31551625274 -2.179645910912
H -0.795606526749 -0.378339379224 -3.988865441279
H 0.595397480114 0.52340916305 -4.052642783643
H -0.754278463435 1.132262875111 -3.304307715165
H 0.809022325543 -1.215827691967 -2.408728136355
H -0.655491710882 -0.55528574347 -1.596710506381
H 0.853888809771 0.423313476746 -1.665924233819
O 0.002898899482 0.131306638217 0.885899745899
O -0.006363171995 -0.472034916053 3.097872852183
C 0.003459023904 0.333400712444 2.129315795105
H 0.014816954646 1.435593520132 2.429895688131
