12
Coordinates from XML
N -0.196950110922 -0.12586970927 -2.495008207677
C 0.225522750023 0.144100046522 -3.882817529134
H -0.810296244481 -0.949821094627 -2.44354584263
H -0.714210866573 0.67014395783 -2.099175462122
H 0.611836984258 -0.303519008264 -1.884907182241
H -0.672816352015 0.323608928848 -4.476408254226
H 0.765993895747 -0.732941681261 -4.243995820796
H 0.87031867103 1.024925527207 -3.870236876216
O 0.732743864214 -0.271410278693 1.380646556373
O -0.95546487121 0.30077884989 2.822687716245
C 0.218052624502 -0.028701607456 2.50452876936
H 0.938835751243 -0.123648782468 3.385870347957
