8
Coordinates from XML
O 0.154642315195 -0.260863902754 -1.340436919581
O -0.187296379398 -0.090139946693 -3.601158729085
C 0.031922605969 0.343485106838 -2.438903099112
H 0.137500927246 1.478948138647 -2.369023334723
O -0.137293708311 -0.338100452115 3.561012904835
O 0.311229649504 0.601114957625 1.518065756325
C -0.170228802388 -0.257345596634 2.304303020695
H -0.73295865406 -1.108141789021 1.789728232101
