8
Coordinates from XML
O 0.743396089299 -0.885663066035 -2.041505245011
O -0.460240856612 1.037842677148 -1.71239189314
C -0.277186136981 -0.148989342728 -2.092978974131
H -1.193329711407 -0.641514689339 -2.565637406812
O -0.688538154616 0.727936291373 1.365660607162
O 0.926450124734 -0.478388539216 2.458146351081
C -0.232906289471 -0.244275637501 2.024545550698
H -1.002801791293 -1.051651344966 2.27094287875
