8
Coordinates from XML
O -1.089104625466 -0.077365633048 -2.168454385409
O 0.9228713047 0.043479588733 -3.261286087367
C 0.162647573432 0.033212064616 -2.256855773027
H 0.700257326559 0.14293905487 -1.254737017114
O 0.110797089412 -0.285569422296 1.44128125862
O 0.161015623082 0.06188128523 3.707045576619
C -0.265997522367 0.21893900086 2.532346275702
H -1.145308753842 0.942630581416 2.44075744214
