8
Coordinates from XML
O -0.686787456817 0.066324846916 -1.637601409946
O 0.381555800729 0.004456506704 -3.665345681923
C 0.29867904548 -0.069307286361 -2.410508582427
H 1.286002026703 -0.298368975047 -1.883222764747
O 0.357385153261 0.217687535265 3.651818195103
O -0.046598255072 -0.06772552604 1.413008549281
C -0.304115375505 -0.146788261771 2.643601827543
H -1.309438299904 -0.631975711746 2.886964141929
