8
Coordinates from XML
O -1.450001796238 -2.384829996245 0.0
O 0.741998203762 -2.584829996245 0.0
C -0.351001796238 -1.863829996245 0.0
H -0.312001796238 -0.763829996245 0.0
O -0.755602835035 2.17920834168 0.0
O 1.437397164965 2.03520834168 0.0
C 0.374397164965 2.62220834168 0.0
H 0.449397164965 3.72020834168 0.0
