8
Coordinates from XML
O -1.472916456291 -2.421493452329 0.0
O 0.719083543709 -2.621493452329 0.0
C -0.373916456291 -1.900493452329 0.0
H -0.334916456291 -0.800493452329 0.0
O -0.732688174982 2.215871797765 0.0
O 1.460311825018 2.071871797765 0.0
C 0.397311825018 2.658871797765 0.0
H 0.472311825018 3.756871797765 0.0
