8
Coordinates from XML
O -1.47946350202 -2.431968725497 0.0
O 0.71253649798 -2.631968725497 0.0
C -0.38046350202 -1.910968725497 0.0
H -0.34146350202 -0.810968725497 0.0
O -0.726141129252 2.226347070933 0.0
O 1.466858870748 2.082347070933 0.0
C 0.403858870748 2.669347070933 0.0
H 0.478858870748 3.767347070933 0.0
