8
Coordinates from XML
O -1.482737024885 -2.43720636208 0.0
O 0.709262975115 -2.63720636208 0.0
C -0.383737024885 -1.91620636208 0.0
H -0.344737024885 -0.81620636208 0.0
O -0.722867606387 2.231584707516 0.0
O 1.470132393613 2.087584707516 0.0
C 0.407132393613 2.674584707516 0.0
H 0.482132393613 3.772584707516 0.0
