8
Coordinates from XML
O -1.489284070614 -2.447681635247 0.0
O 0.702715929386 -2.647681635247 0.0
C -0.390284070614 -1.926681635247 0.0
H -0.351284070614 -0.826681635247 0.0
O -0.716320560658 2.242059980683 0.0
O 1.476679439342 2.098059980683 0.0
C 0.413679439342 2.685059980683 0.0
H 0.488679439342 3.783059980683 0.0
