8
Coordinates from XML
O -1.492557593479 -2.452919271831 0.0
O 0.699442406521 -2.652919271831 0.0
C -0.393557593479 -1.931919271831 0.0
H -0.354557593479 -0.831919271831 0.0
O -0.713047037793 2.247297617267 0.0
O 1.479952962207 2.103297617267 0.0
C 0.416952962207 2.690297617267 0.0
H 0.491952962207 3.788297617267 0.0
