8
Coordinates from XML
O -1.499104639209 -2.463394544998 0.0
O 0.692895360791 -2.663394544998 0.0
C -0.400104639209 -1.942394544998 0.0
H -0.361104639209 -0.842394544998 0.0
O -0.706499992064 2.257772890434 0.0
O 1.486500007936 2.113772890434 0.0
C 0.423500007936 2.700772890434 0.0
H 0.498500007936 3.798772890434 0.0
