8
Coordinates from XML
O -1.518745776397 -2.494820364499 0.0
O 0.673254223603 -2.694820364499 0.0
C -0.419745776397 -1.973820364499 0.0
H -0.380745776397 -0.873820364499 0.0
O -0.686858854875 2.289198709935 0.0
O 1.506141145125 2.145198709935 0.0
C 0.443141145125 2.732198709935 0.0
H 0.518141145125 3.830198709935 0.0
