8
Coordinates from XML
O -1.522019299262 -2.500058001083 0.0
O 0.669980700738 -2.700058001083 0.0
C -0.423019299262 -1.979058001083 0.0
H -0.384019299262 -0.879058001083 0.0
O -0.683585332011 2.294436346519 0.0
O 1.509414667989 2.150436346519 0.0
C 0.446414667989 2.737436346519 0.0
H 0.521414667989 3.835436346519 0.0
