8
Coordinates from XML
O -1.528566344991 -2.51053327425 0.0
O 0.663433655009 -2.71053327425 0.0
C -0.429566344991 -1.98953327425 0.0
H -0.390566344991 -0.88953327425 0.0
O -0.677038286281 2.304911619686 0.0
O 1.515961713719 2.160911619686 0.0
C 0.452961713719 2.747911619686 0.0
H 0.527961713719 3.845911619686 0.0
