8
Coordinates from XML
O -1.531839867856 -2.515770910834 0.0
O 0.660160132144 -2.715770910834 0.0
C -0.432839867856 -1.994770910834 0.0
H -0.393839867856 -0.894770910834 0.0
O -0.673764763417 2.31014925627 0.0
O 1.519235236583 2.166149256269 0.0
C 0.456235236583 2.753149256269 0.0
H 0.531235236583 3.851149256269 0.0
