8
Coordinates from XML
O -1.535113390721 -2.521008547417 0.0
O 0.656886609279 -2.721008547417 0.0
C -0.436113390721 -2.000008547417 0.0
H -0.397113390721 -0.900008547417 0.0
O -0.670491240552 2.315386892853 0.0
O 1.522508759448 2.171386892853 0.0
C 0.459508759448 2.758386892853 0.0
H 0.534508759448 3.856386892853 0.0
