8
Coordinates from XML
O -1.538386913585 -2.526246184001 0.0
O 0.653613086415 -2.726246184001 0.0
C -0.439386913585 -2.005246184001 0.0
H -0.400386913585 -0.905246184001 0.0
O -0.667217717687 2.320624529437 0.0
O 1.525782282313 2.176624529437 0.0
C 0.462782282313 2.763624529437 0.0
H 0.537782282313 3.861624529437 0.0
