8
Coordinates from XML
O -1.54166043645 -2.531483820584 0.0
O 0.65033956355 -2.731483820584 0.0
C -0.44266043645 -2.010483820584 0.0
H -0.40366043645 -0.910483820584 0.0
O -0.663944194822 2.32586216602 0.0
O 1.529055805178 2.18186216602 0.0
C 0.466055805178 2.76886216602 0.0
H 0.541055805178 3.86686216602 0.0
