8
Coordinates from XML
O -1.544933959315 -2.536721457168 0.0
O 0.647066040685 -2.736721457168 0.0
C -0.445933959315 -2.015721457168 0.0
H -0.406933959315 -0.915721457168 0.0
O -0.660670671958 2.331099802604 0.0
O 1.532329328042 2.187099802604 0.0
C 0.469329328042 2.774099802604 0.0
H 0.544329328042 3.872099802604 0.0
