8
Coordinates from XML
O -1.54820748218 -2.541959093751 0.0
O 0.64379251782 -2.741959093751 0.0
C -0.44920748218 -2.020959093751 0.0
H -0.41020748218 -0.920959093751 0.0
O -0.657397149093 2.336337439187 0.0
O 1.535602850907 2.192337439187 0.0
C 0.472602850907 2.779337439187 0.0
H 0.547602850907 3.877337439187 0.0
