8
Coordinates from XML
O -1.551481005044 -2.547196730335 0.0
O 0.640518994956 -2.747196730335 0.0
C -0.452481005044 -2.026196730335 0.0
H -0.413481005044 -0.926196730335 0.0
O -0.654123626228 2.341575075771 0.0
O 1.538876373772 2.197575075771 0.0
C 0.475876373772 2.784575075771 0.0
H 0.550876373772 3.882575075771 0.0
