8
Coordinates from XML
O -1.554754527909 -2.552434366918 0.0
O 0.637245472091 -2.752434366918 0.0
C -0.455754527909 -2.031434366918 0.0
H -0.416754527909 -0.931434366918 0.0
O -0.650850103363 2.346812712354 0.0
O 1.542149896637 2.202812712354 0.0
C 0.479149896637 2.789812712354 0.0
H 0.554149896637 3.887812712354 0.0
