8
Coordinates from XML
O -1.558028050774 -2.557672003502 0.0
O 0.633971949226 -2.757672003502 0.0
C -0.459028050774 -2.036672003502 0.0
H -0.420028050774 -0.936672003502 0.0
O -0.647576580499 2.352050348938 0.0
O 1.545423419501 2.208050348938 0.0
C 0.482423419501 2.795050348938 0.0
H 0.557423419501 3.893050348938 0.0
