8
Coordinates from XML
O 0.16253257571 -0.033818417176 -1.304493236262
O -0.82033153552 0.597975524349 -3.306343100347
C -0.024497323656 -0.07698008367 -2.568053740024
H 0.616051484603 -0.83261356899 -3.121102058461
O -0.346697603836 0.329606547436 1.495814191471
O 1.036787209637 -0.725443195387 3.027293259263
C -0.007381396637 -0.089170347152 2.654657875265
H -0.748953008027 0.139570449618 3.482242538908
