8
Coordinates from XML
O 0.16253257571 -0.033818417176 -1.514493236262
O -0.82033153552 0.597975524349 -3.516343100347
C -0.024497323656 -0.07698008367 -2.778053740024
H 0.616051484603 -0.83261356899 -3.331102058461
O -0.346697603836 0.329606547436 1.705814191471
O 1.036787209637 -0.725443195387 3.237293259263
C -0.007381396637 -0.089170347152 2.864657875265
H -0.748953008027 0.139570449618 3.692242538908
