8
Coordinates from XML
O 0.612141771624 0.089133283751 -2.680868419867
O -0.441799909283 0.947451932889 -4.558389219703
C 0.016154661751 0.018448546912 -3.809243930157
H -0.129249183098 -1.033468628035 -4.208587342996
O 0.716094562164 -0.518479344823 4.544917910532
O -0.91439770952 -0.528594068661 2.897501457911
C 0.01147114277 -0.008103025734 3.608728768781
H 0.24407934558 1.076741574734 3.371762950054
