8
Coordinates from XML
O 0.612141771624 0.089133283751 -2.740868419867
O -0.441799909283 0.947451932889 -4.618389219703
C 0.016154661751 0.018448546912 -3.869243930157
H -0.129249183098 -1.033468628035 -4.268587342996
O 0.716094562164 -0.518479344823 4.604917910532
O -0.91439770952 -0.528594068661 2.957501457911
C 0.01147114277 -0.008103025734 3.668728768781
H 0.24407934558 1.076741574734 3.431762950054
