8
Coordinates from XML
O 0.717860743229 0.085576403653 -2.042321285731
O 0.1611190574 0.57760069769 -4.237893902012
C 0.011122403693 0.006356185006 -3.104240932298
H -0.890549086324 -0.678101356133 -3.02905063443
O -0.269432828919 -0.28977536137 4.298814273586
O -0.609350834295 -0.369216581951 2.007366441729
C -0.011307878477 -0.010491227245 3.07865029208
H 0.88964465969 0.660915100781 2.921662238133
