8
Coordinates from XML
C -1.162062364703 -0.406119525279 -0.261675271475
C 0.094137939111 0.033094285752 -1.093116650615
O 1.076736371299 0.542050967452 -0.428072742082
O 0.002513607675 -0.164682576059 -2.368046213645
H -1.009784908242 -0.224500691692 0.8092649828
H -2.04263754012 0.151686967537 -0.613704733333
H -1.358794031588 -1.474165610219 -0.436940933339
F -8.8626852e-05 -3.0940948e-05 3.222610658337
