8
Coordinates from XML
C 1.431618725848 0.248553332356 -1.014629335572
C -0.113352362904 -0.013870471924 -1.094884079471
O -0.880247439251 0.904169898733 -0.609195081467
O -0.449679337303 -1.13568802918 -1.643851865765
H 1.643382264613 1.220982470245 -0.553516954346
H 1.905423412164 -0.553575109887 -0.429322111652
H 1.859661442062 0.21225311827 -2.027351196742
F 0.000109500654 1.9715024e-05 3.388979541199
