8
Coordinates from XML
C 0.587792587865 1.234632196769 -1.490937011914
C -0.051607696938 -0.09418693677 -0.954607143097
O -1.303646193543 -0.047037174926 -0.643164554423
O 0.758114492748 -1.100174812152 -0.88184406193
H -0.156495689635 2.03877322826 -1.540726710975
H 1.414937247176 1.531600442057 -0.829025357031
H 1.014444866143 1.055838350656 -2.489007367435
F 4.4343314e-05 9.4870328e-05 3.086348434401
