8
Coordinates from XML
C -1.392715177826 0.279592228388 -1.454884025258
C 0.107633796442 -0.027451220556 -1.112948332584
O 0.342121267264 -1.132183235048 -0.487326413813
O 0.951891693419 0.87302914844 -1.499367540585
H -2.049097177561 -0.530012832316 -1.113139722025
H -1.686863039576 1.225947480574 -0.976998853808
H -1.497706495725 0.414437981619 -2.541593409841
F -0.000106847009 2.0741908e-05 3.540243005244
