8
Coordinates from XML
C 0.929646426071 0.792620632153 -0.066882379259
C -0.077317417909 -0.058084207803 -0.918097883256
O -1.307071283975 0.335011146061 -0.919304003598
O 0.443758507002 -1.071874023648 -1.529380293958
H 0.42461382905 1.641765342388 0.409544099549
H 1.386947740137 0.151114373381 0.701121978225
H 1.739971346126 1.154516031103 -0.716920135621
F 7.0652511e-05 6.1189751e-05 2.662825500107
