8
Coordinates from XML
C 0.938212929266 -0.725835981011 -2.191825458248
C -0.070731931359 0.054806160967 -1.278112781068
O 0.021368032198 -0.154228857961 -0.007427162736
O -0.893394729728 0.828603429908 -1.908525187851
H 1.613356356265 -1.348496549861 -1.592190551273
H 0.375693601656 -1.35628292323 -2.896519806257
H 1.520338097029 -0.007144472912 -2.787439969306
F 7.218862e-05 -5.5847909e-05 4.190764817985
