8
Coordinates from XML
C -0.292354057599 1.420066205795 -0.895131302877
C 0.021424163359 -0.112173282232 -1.02173352021
O -0.031001708773 -0.803494237973 0.067370169595
O 0.302939703561 -0.515693949885 -2.217925882361
H -0.536630909862 1.688745733842 0.139869655259
H 0.580035533049 1.997831005132 -1.235145572844
H -1.132916768639 1.674991975476 -1.557408451283
F -2.2563183e-05 0.000108650538 3.162043361348
