8
Coordinates from XML
C -0.479973881606 0.288716704259 -0.074447461281
C 0.032284700286 -0.025256169149 -1.52401806049
O -0.744642859391 -0.738892049991 -2.268281037973
O 1.191134515672 0.470736440507 -1.813870665125
H -1.47147631774 -0.147875736956 0.097007524355
H 0.236557034028 -0.112357553411 0.657815027025
H -0.519963814634 1.378667299055 0.068913435406
F -3.74047e-05 2.1784266e-05 4.402742259576
