8
Coordinates from XML
C 1.327826165259 0.496728816551 -1.598785641859
C -0.103140686022 -0.037691248728 -1.239659192804
O -0.394408169839 -0.107175429587 0.016189199536
O -0.83921553265 -0.354606089439 -2.254900494055
H 1.889476438512 0.759739497111 -0.694097184349
H 1.8711215099 -0.274602560464 -2.164792302888
H 1.233866074069 1.377269373037 -2.251444565176
F 0.000101807437 3.8185145e-05 3.948734847247
