74
Coordinates from XML
K 0.0 0.0 2.113512653552
Br 0.0 0.0 -1.043487346448
K 0.0 0.0 2.265200164573
Br 0.0 0.0 -1.118378782796
K 0.0 0.0 2.376437672654
Br 0.0 0.0 -1.173299169451
K 0.0 0.0 2.447225177797
Br 0.0 0.0 -1.208248506413
K 0.0 0.0 2.477562680001
Br 0.0 0.0 -1.223226793683
K 0.0 0.0 2.467450179267
Br 0.0 0.0 -1.21823403126
K 0.0 0.0 2.416887675593
Br 0.0 0.0 -1.193270219144
K 0.0 0.0 2.325875168981
Br 0.0 0.0 -1.148335357335
K 0.0 0.0 2.19441265943
Br 0.0 0.0 -1.083429445833
K 0.0 0.0 2.02250014694
Br 0.0 0.0 -0.998552484639
K 0.0 0.0 2.305650167511
Br 0.0 0.0 -1.138349832489
K 0.0 0.0 2.59385643845
Br 0.0 0.0 -1.28064356155
K 0.0 0.0 2.380370311829
Br 0.0 0.0 -1.175240799282
K 0.0 0.0 2.455090456146
Br 0.0 0.0 -1.212131766076
K 0.0 0.0 2.49067147725
Br 0.0 0.0 -1.22969889312
K 0.0 0.0 2.48711337514
Br 0.0 0.0 -1.227942180416
K 0.0 0.0 2.444416149815
Br 0.0 0.0 -1.206861627962
K 0.0 0.0 2.362579801277
Br 0.0 0.0 -1.16645723576
K 0.0 0.0 2.241604329525
Br 0.0 0.0 -1.106729003808
K 0.0 0.0 2.081489734559
Br 0.0 0.0 -1.027676932108
K 0.0 0.0 2.78599395241
Br 0.0 0.0 -1.37550604759
K 0.0 0.0 2.882062709389
Br 0.0 0.0 -1.422937290611
K 0.0 0.0 -2.262952942187
Br 0.0 0.0 1.117269280035
K 0.0 0.0 -2.89273701572
Br 0.0 0.0 1.428207428724
K 0.0 0.0 -3.561660212468
Br 0.0 0.0 1.758469417162
K 0.0 0.0 -2.401718924491
Br 0.0 0.0 1.185781075509
K 0.0 0.0 -3.458475251267
Br 0.0 0.0 1.707524748733
K 0.0 0.0 2.254674908706
Br 0.0 0.0 -1.113182234151
K 0.0 0.0 2.344861905054
Br 0.0 0.0 -1.157709523517
K 0.0 0.0 2.384073642597
Br 0.0 0.0 -1.177069214546
K 0.0 0.0 2.372310121334
Br 0.0 0.0 -1.171261307237
K 0.0 0.0 2.309571341266
Br 0.0 0.0 -1.140285801591
K 0.0 0.0 2.195857302392
Br 0.0 0.0 -1.084142697608
K 0.0 0.0 2.031168004712
Br 0.0 0.0 -1.002831995288
K 0.0 0.0 -2.419364206385
Br 0.0 0.0 1.194492936472
K 0.0 0.0 -3.144781350925
Br 0.0 0.0 1.552647220503
K 0.0 0.0 -3.921173754271
Br 0.0 0.0 1.935969102872
