8
Coordinates from XML
H 0.809414980873 -0.578560965244 -2.100986149162
N -7.215253e-06 7.931509e-06 -1.858767776349
H 0.204417906087 0.534602158094 -1.009708159675
H -0.200934175897 0.645097373489 -2.628206635734
H -0.812848526938 -0.601163341173 -1.696193814963
O -0.030610418623 0.052226387177 1.886177262031
H -0.235052620991 -0.874865574309 2.040532212837
H 0.720912245028 0.045909481857 1.285931185222
