8
Coordinates from XML
H -0.21050390223 -0.904142044129 -2.340906831544
N 5.252873e-06 8.335438e-06 -1.908733270636
H 0.729766807469 -0.121722453215 -1.200840243034
H 0.326190094648 0.653611455761 -2.626336643051
H -0.845452545928 0.372198087398 -1.466891569366
O 0.044895648144 0.037209504797 1.941041867785
H -0.260409599358 0.104033753129 1.031401941395
H -0.452190355764 -0.694636457741 2.318438955525
