8
Coordinates from XML
H -0.383556132565 -0.651945271463 -2.509026420538
N 7.576079e-06 1.157214e-06 -1.818794042606
H -0.614523343944 0.031107213311 -1.000340005039
H 0.932168715719 -0.313870102686 -1.533998270246
H 0.065903607714 0.93464912305 -2.231878880106
O 0.059979086946 -0.026258874927 1.821110008591
H -0.24192053569 0.741343771359 2.315846671138
H -0.71008921136 -0.324553411693 1.328021015325
