8
Coordinates from XML
H 1.022054358964 0.002765741472 -1.735856411702
N -4.560808e-06 3.362862e-06 -1.798816190754
H -0.336474127814 -0.965969571032 -1.84537122769
H -0.394077977924 0.459282255727 -0.972791233207
H -0.291420686017 0.503935295043 -2.641239742001
O 0.011120249814 0.036951736444 1.748293458296
H -0.776826256451 0.026795281392 2.2997993238
H 0.600321624413 -0.613306599875 2.142155624818
