8
Coordinates from XML
H 0.908039403238 0.450181549294 -2.01493483804
N -7.23486e-06 2.816823e-06 -1.868762296603
H 0.138695534439 -0.999328147698 -1.693885153618
H -0.466376196892 0.426053455896 -1.062828655291
H -0.580299003794 0.123148372567 -2.703414814126
O -0.024937535591 0.057686967227 1.889602616483
H -0.317792934551 -0.502083477232 1.16433415942
H 0.713610507728 -0.413544922906 2.286602444481
