8
Coordinates from XML
H -0.287248330925 0.074381568601 -0.988633233752
N -1.5102e-06 3.853016e-06 -1.968701200481
H -0.016601666275 0.928260831976 -2.400611221007
H 0.948518909593 -0.382619879777 -2.018262095743
H -0.644703004641 -0.619999845287 -2.467202541659
O -0.033667444117 0.046588670434 2.002654540385
H 0.012630159827 -0.889040362159 2.220774725692
H 0.521751685595 0.14956814326 1.224177573143
