8
Coordinates from XML
H -0.825608781483 -0.251686908348 -2.269846263304
N 4.630614e-06 1.336655e-06 -1.71885486492
H 0.316127637274 -0.815161513902 -1.185883363118
H 0.748037544264 0.308569546211 -2.346374275096
H -0.23861850391 0.758259643727 -1.073369365916
O 0.00137014126 -0.000402617428 1.78659596803
H -0.56591954899 -0.520859315915 1.210029577806
H 0.544172177394 0.527249807032 1.193240729972
