22
Coordinates from XML
N -0.235383568566 -0.327214463508 -4.129969163288
C -0.391860523786 -0.266460245052 -2.6340338111
H -0.95623493981 -0.939016742956 -4.548418927701
H 0.693651844582 -0.701712192279 -4.385631737125
H -0.33014657067 0.614346114781 -4.546168232178
H -0.313400424274 -1.293933211904 -2.265640537448
H -1.401928496924 0.10576160601 -2.437123904456
C 0.635932617578 0.621543018692 -1.909838714703
H 1.652237960991 0.260854593126 -2.086267827701
H 0.45195352079 0.610613141744 -0.832669311436
H 0.567947368937 1.655349660209 -2.257305157145
N -0.154995457325 1.168413981193 3.356911873164
C -0.239132968342 -0.017445128087 2.433517189035
H -0.603252782309 1.996634418583 2.930127136339
H 0.830729024931 1.40411804906 3.560650767024
H -0.631537271418 0.969192362091 4.252432202361
H 0.253166128963 0.272638693132 1.500209488242
H -1.301763122532 -0.189404642483 2.236522242618
C 0.401001674325 -1.308192213003 2.975335126666
H 1.466023518147 -1.160338269648 3.170187909344
H 0.296111439163 -2.11624478088 2.247110724634
H -0.082961834297 -1.62055257974 3.903947757591
