22
Coordinates from XML
N -0.279552 0.316806 -3.91317
C -0.45611 0.139517 -2.42878
H -1.1224 0.74368 -4.33319
H -0.115825 -0.594279 -4.37342
H 0.527543 0.930556 -4.11478
H -1.34055 -0.489426 -2.28816
H -0.65605 1.1322 -2.01385
C 0.74625 -0.490764 -1.70322
H 0.957158 -1.48806 -2.09694
H 0.536594 -0.58287 -0.634656
H 1.63923 0.127418 -1.82386
N 0.681608 0.572239 3.61338
C 0.372619 -0.271133 2.40538
H 1.70104 0.610172 3.78172
H 0.229541 0.182018 4.45723
H 0.340193 1.53908 3.48147
H 0.787593 -1.26509 2.59881
H 0.905213 0.178575 1.56178
C -1.1236 -0.393588 2.06525
H -1.67299 -0.849659 2.89245
H -1.25953 -1.01876 1.17928
H -1.55591 0.588704 1.85952
