22
Coordinates from XML
N -0.279551649127 0.316806058958 -3.913166410708
C -0.456109594408 0.139517217131 -2.42878281843
H -1.122395970499 0.743680484014 -4.333190944591
H -0.115824889211 -0.594278987238 -4.373423171751
H 0.52754336377 0.930556459959 -4.114775189105
H -1.340545340674 -0.489426240011 -2.288163376865
H -0.656049779085 1.132197308715 -2.013848984642
C 0.746249756156 -0.49076359529 -1.703217407799
H 0.957158276074 -1.488058730305 -2.096943115876
H 0.536594215543 -0.582870110663 -0.634656395167
H 1.639226391246 0.127418261023 -1.823861580512
N 0.681607806766 0.572238830215 3.613376288641
C 0.372619422601 -0.271133409144 2.405382855369
H 1.701043687039 0.6101716861 3.781722712289
H 0.22954133112 0.182017607163 4.457225800152
H 0.340193289451 1.539077010274 3.481474525776
H 0.787592560969 -1.265091295583 2.598813213169
H 0.905212717604 0.178574805199 1.561779374953
C -1.123602079188 -0.39358785947 2.065245823162
H -1.672989891114 -0.849659430835 2.892452978112
H -1.259528441825 -1.01876167468 1.179275497296
H -1.555907965811 0.588704471082 1.859516650631
