22
Coordinates from XML
N 0.229819335835 0.670080552482 -1.973848639387
C 0.289508200086 0.254185468896 -3.419347587652
H 0.802992779479 1.515371931303 -1.812654277538
H 0.586067019862 -0.082888349306 -1.361603492436
H -0.742651170746 0.881479749266 -1.693938819035
H 1.343683672043 0.078672843243 -3.654888839792
H -0.069534431144 1.104296318309 -4.007531114088
C -0.533060372933 -0.999226487692 -3.768212153443
H -0.18383436378 -1.863162031041 -3.197461336739
H -0.435861648542 -1.230744972444 -4.831797266537
H -1.591817152577 -0.84145684465 -3.548544413452
N -0.316004375914 0.424195997002 1.870831671427
C 0.256949086734 -0.500545725864 2.911300684002
H -0.186705259124 0.032634988293 0.922680497428
H 0.149443575901 1.346636087672 1.905200009724
H -1.328135348314 0.566781069409 2.025745860369
H 1.316060901982 -0.631879262878 2.66921814899
H -0.255658153115 -1.460617419957 2.797037444267
C 0.116287879509 -0.009766766278 4.363443071342
H 0.630014497519 0.944781834073 4.501362811834
H 0.555182148777 -0.736276238376 5.051787099394
H -0.935896551294 0.119387820751 4.628656402314
