22
Coordinates from XML
N 0.229819 0.670081 -1.97385
C 0.289508 0.254185 -3.41935
H 0.802993 1.51537 -1.81265
H 0.586067 -0.0828883 -1.3616
H -0.742651 0.88148 -1.69394
H 1.34368 0.0786728 -3.65489
H -0.0695344 1.1043 -4.00753
C -0.53306 -0.999226 -3.76821
H -0.183834 -1.86316 -3.19746
H -0.435862 -1.23074 -4.8318
H -1.59182 -0.841457 -3.54854
N -0.316004 0.424196 1.87083
C 0.256949 -0.500546 2.9113
H -0.186705 0.032635 0.92268
H 0.149444 1.34664 1.9052
H -1.32814 0.566781 2.02575
H 1.31606 -0.631879 2.66922
H -0.255658 -1.46062 2.79704
C 0.116288 -0.00976677 4.36344
H 0.630014 0.944782 4.50136
H 0.555182 -0.736276 5.05179
H -0.935897 0.119388 4.62866
