22
Coordinates from XML
N 0.216593 0.789674 -3.99038
C 0.291956 0.204 -2.60571
H 0.783789 1.6518 -4.05405
H -0.759538 1.0269 -4.23454
H 0.571089 0.117741 -4.6915
H -0.0655689 0.974874 -1.91614
H 1.34934 0.00815293 -2.40289
C -0.52056 -1.08747 -2.40254
H -1.58231 -0.91107 -2.59142
H -0.411234 -1.44479 -1.37558
H -0.172827 -1.87417 -3.07656
N 0.180067 0.269773 4.254
C 0.48891 -0.227897 2.8673
H 0.996493 0.14763 4.87654
H -0.616016 -0.249806 4.66021
H -0.0646429 1.27403 4.23612
H 0.769267 -1.28126 2.96423
H 1.35528 0.339609 2.51387
C -0.664611 -0.091511 1.85727
H -1.53791 -0.659384 2.18738
H -0.358271 -0.473559 0.880307
H -0.954281 0.955478 1.73888
