22
Coordinates from XML
N 0.181747755501 0.904251660286 -1.950846968582
C -0.462134012714 -0.283232711894 -2.615147973315
H -0.333046505236 1.167297273961 -1.093628905229
H 0.188443319313 1.719712346981 -2.586219093624
H 1.158594478205 0.691171335204 -1.68796815714
H -1.496144841183 -0.00056080522 -2.835348992128
H -0.463933051702 -1.093768184956 -1.87990043781
C 0.229195367602 -0.758407663863 -3.905744551814
H 0.23341791845 0.03454414571 -4.657615232887
H -0.29855824056 -1.62031349709 -4.321504286903
H 1.261924882348 -1.05437129121 -3.705778616314
N -0.382867855682 -0.286121439498 1.638293491789
C -0.411370162586 -0.181256940586 3.139689424203
H -1.238605320129 -0.748606259208 1.287793680975
H 0.433367118273 -0.838137921377 1.32563238064
H -0.323294155643 0.65162269603 1.207219339645
H -0.507238993838 -1.200505165987 3.526357901211
H -1.311716609529 0.383858162866 3.399653120569
C 0.821412269473 0.49478666838 3.766251144612
H 1.731649741958 -0.060044278838 3.525979866693
H 0.720497080688 0.530678995957 4.853812434422
H 0.930335717684 1.518393396369 3.399541390791
