22
Coordinates from XML
N -0.845091 -0.850371 -3.01263
C -0.231811 0.281594 -2.23254
H -1.78648 -1.07657 -2.6498
H -0.2604 -1.70023 -2.94488
H -0.936007 -0.599247 -4.01134
H -0.195785 -0.0379386 -1.18652
H -0.91441 1.13233 -2.32119
C 1.17619 0.699136 -2.6936
H 1.87648 -0.134941 -2.60412
H 1.54616 1.52306 -2.07836
H 1.16059 1.03075 -3.7347
N 0.871931 -0.709448 3.20955
C -0.49638 -0.259753 2.77195
H 0.812739 -1.59135 3.746
H 1.31677 0.00450397 3.81048
H 1.48323 -0.869879 2.39143
H -1.09589 -0.141173 3.67974
H -0.918074 -1.07111 2.17075
C -0.520917 1.04922 1.9624
H -0.111894 1.87542 2.54909
H -1.54717 1.30259 1.68516
H 0.0655037 0.949036 1.04579
