22
Coordinates from XML
N 0.381885568733 -0.502535506661 -3.555359358752
C 0.077568700198 -0.402492529533 -2.084515608807
H 0.769265583929 -1.432979880691 -3.786094974907
H 1.073234764972 0.213263610736 -3.835335450217
H -0.474821769074 -0.361537573328 -4.116527902278
H 1.015395218113 -0.592825241479 -1.553643524441
H -0.630833517505 -1.203956096473 -1.853469343046
C -0.506108248067 0.948460769812 -1.633280106487
H 0.190906780923 1.762487265351 -1.846893863586
H -0.697789376709 0.936585135112 -0.557464598222
H -1.449117152544 1.153779285222 -2.145812649853
N 0.466471554862 1.115842156916 2.783428528178
C 0.442730165992 -0.358182772989 2.478985523703
H 1.427247584444 1.428349795121 3.003149557997
H -0.136477584921 1.331449375211 3.595022368503
H 0.126716917882 1.661991652851 1.97409205375
H 0.842635710195 -0.869750245785 3.359862680515
H 1.12233134041 -0.517459009566 1.636172820731
C -0.945888330077 -0.927695753413 2.137282856162
H -1.63830737575 -0.786901795447 2.970849200185
H -0.874390590442 -1.998281862102 1.92993013564
H -1.359802520145 -0.435726816935 1.253680737841
