22
Coordinates from XML
N 0.156414 0.422967 -4.1024
C -0.534225 -0.196191 -2.91679
H -0.477858 0.457143 -4.91822
H 0.99219 -0.125287 -4.36624
H 0.457609 1.38823 -3.88724
H -0.85276 -1.19726 -3.22332
H -1.42074 0.412661 -2.71441
C 0.325699 -0.29519 -1.64396
H 1.21284 -0.907786 -1.82233
H -0.248579 -0.75338 -0.834934
H 0.647217 0.696171 -1.31542
N 0.104411 1.2418 2.90063
C -0.281984 -0.147161 2.46765
H -0.214474 1.94204 2.20997
H 1.13079 1.32389 2.99297
H -0.321821 1.47208 3.81389
H 0.173563 -0.310927 1.4862
H -1.37096 -0.152696 2.35963
C 0.14713 -1.26947 3.42975
H 1.2337 -1.28721 3.54442
H -0.171257 -2.24071 3.04297
H -0.30488 -1.12943 4.41473
