22
Coordinates from XML
N -0.355529 -0.753355 -2.06238
C -0.43702 0.013743 -3.35502
H -1.22729 -1.28399 -1.89657
H -0.211731 -0.111666 -1.26472
H 0.431117 -1.42378 -2.0839
H -1.30451 0.676122 -3.2758
H -0.62062 -0.719586 -4.14628
C 0.814711 0.841209 -3.6983
H 1.01063 1.58693 -2.92396
H 0.673298 1.3638 -4.6476
H 1.69209 0.196433 -3.79095
N -0.412155 0.0165806 4.16655
C -0.383119 -0.30138 2.69547
H -1.2497 -0.393764 4.61282
H -0.433188 1.03878 4.31946
H 0.42461 -0.36395 4.63958
H -1.30682 0.0993421 2.26679
H -0.394401 -1.39215 2.60796
C 0.828134 0.265243 1.93313
H 0.852808 1.35564 2.00034
H 0.772433 -0.0105518 0.877147
H 1.7619 -0.130106 2.34042
