22
Coordinates from XML
N 1.01241 -0.545707 -2.0886
C 0.118914 0.556521 -2.59135
H 1.91794 -0.164216 -1.76687
H 1.19986 -1.23438 -2.83647
H 0.571173 -1.04132 -1.29588
H 0.658082 1.05597 -3.40216
H -0.0102088 1.26057 -1.76358
C -1.25993 0.0945052 -3.09603
H -1.15339 -0.603241 -3.93024
H -1.84276 0.952276 -3.44069
H -1.81914 -0.39966 -2.29779
N 0.436394 0.490223 3.63008
C 0.451092 -0.226607 2.30647
H 1.38706 0.530506 4.03461
H -0.180067 0.00394367 4.30255
H 0.0922485 1.45857 3.51779
H 0.853786 -1.22695 2.49278
H 1.14316 0.320397 1.65887
C -0.919839 -0.342277 1.61615
H -1.62418 -0.894209 2.24334
H -0.820599 -0.87279 0.665905
H -1.33604 0.647427 1.41275
