22
Coordinates from XML
N 0.0528762 1.15841 -3.22843
C -0.407958 -0.265367 -3.0657
H -0.480275 1.63194 -3.97713
H 1.05604 1.19214 -3.4759
H -0.0818073 1.68894 -2.35143
H -0.267943 -0.755937 -4.03385
H -1.47763 -0.226894 -2.83793
C 0.324451 -1.06324 -1.97193
H 1.39451 -1.12156 -2.18565
H -0.0692268 -2.08135 -1.91955
H 0.189541 -0.594331 -0.994159
N -0.737941 -0.928614 3.15471
C 0.433343 -0.249218 2.49706
H -0.66936 -1.95526 3.0531
H -1.62706 -0.620688 2.72649
H -0.770766 -0.705742 4.16367
H 0.425779 -0.552718 1.44568
H 1.33574 -0.643325 2.97447
C 0.428555 1.28718 2.59094
H -0.461278 1.70197 2.1111
H 1.30907 1.69879 2.09141
H 0.445034 1.61174 3.63425
