22
Coordinates from XML
N 0.052876227172 1.158413257901 -3.228433040756
C -0.407957596289 -0.265366616897 -3.065700911859
H -0.480275454678 1.631944382519 -3.977129569436
H 1.056042989997 1.192137797582 -3.47589576681
H -0.081807316001 1.688943550178 -2.351429069115
H -0.26794268063 -0.755936899241 -4.033847032221
H -1.477630871698 -0.226894291339 -2.837931528177
C 0.32445054958 -1.063242389471 -1.97192779329
H 1.394508541348 -1.121558508456 -2.185645007896
H -0.069226768053 -2.081346483936 -1.919545391516
H 0.189540595633 -0.594330985803 -0.994158651551
N -0.737941041867 -0.928614083019 3.154712948378
C 0.433342920617 -0.249217783059 2.497055562403
H -0.669359632645 -1.955259622797 3.053103599083
H -1.627056483334 -0.620688401777 2.726490802785
H -0.770765508137 -0.705742491374 4.163667269521
H 0.425779065372 -0.55271767335 1.445675091979
H 1.335737462629 -0.643324601934 2.974469255088
C 0.42855453636 1.28718379757 2.590940225243
H -0.461277581293 1.70197068362 2.111095912102
H 1.309068494538 1.698793259448 2.091405928175
H 0.445034374476 1.611736371681 3.634254720624
