22
Coordinates from XML
N -0.279303469603 -1.21518644818 -2.459143227047
C 0.437695145538 0.055363126135 -2.830108799025
H 0.130045154143 -2.024364722319 -2.955825377722
H -1.280757295702 -1.156283403544 -2.708821750202
H -0.209277659172 -1.391315440631 -1.442869160669
H 0.35168439383 0.161843764805 -3.915850164673
H 1.490671389437 -0.088646530272 -2.569221511588
C -0.095437276416 1.325391735818 -2.142966727289
H -1.144656640848 1.492787460702 -2.3983435467
H 0.477843979491 2.198144589231 -2.465321736688
H -0.010150019972 1.243137577566 -1.056655799406
N -0.293008564176 0.806145780687 1.564965905002
C -0.228778181664 0.211983317996 2.94657515381
H -0.827342004932 1.691281637525 1.572122924624
H -0.755420762486 0.1554240461 0.908113651911
H 0.656528233068 1.005373531168 1.207997855707
H -1.261821405488 0.057850467918 3.273125381397
H 0.239830902694 0.961885511197 3.591255039328
C 0.547696536568 -1.113273542424 3.047314130169
H 0.089788233939 -1.879566514451 2.417064187126
H 0.546580942791 -1.474135099501 4.078836978037
H 1.585844389897 -0.978965866396 2.733751413177
