22
Coordinates from XML
N 0.715898 0.386976 -3.49467
C -0.302574 -0.437411 -2.75366
H 0.814228 0.056811 -4.46953
H 1.6409 0.323001 -3.03751
H 0.434713 1.38153 -3.51769
H 0.0395194 -1.47604 -2.79607
H -1.24267 -0.349775 -3.30693
C -0.526435 -0.0270685 -1.28707
H 0.399675 -0.116446 -0.713985
H -1.27759 -0.67233 -0.82484
H -0.877511 1.00576 -1.22291
N -0.968566 0.72094 2.23889
C 0.405004 0.355318 2.7345
H -1.10789 1.74498 2.27003
H -1.69789 0.278195 2.82266
H -1.10084 0.406874 1.26288
H 0.487208 0.743578 3.75433
H 1.1214 0.880401 2.09526
C 0.716536 -1.15209 2.72929
H 0.0170672 -1.69457 3.37004
H 1.72859 -1.32984 3.10134
H 0.648649 -1.55835 1.71713
