22
Coordinates from XML
N 0.354057 0.884907 -2.0261
C -0.30879 -0.370419 -2.52689
H 0.179834 1.01191 -1.01489
H -0.0110918 1.71458 -2.52311
H 1.37627 0.842979 -2.1746
H -1.37693 -0.27245 -2.30996
H 0.0989161 -1.19869 -1.93927
C -0.110519 -0.65468 -4.02664
H -0.519817 0.157486 -4.63241
H -0.620679 -1.57976 -4.30633
H 0.950601 -0.765061 -4.26318
N -0.557201 0.75239 2.00653
C -0.310711 -0.477333 2.83901
H -1.39913 0.633007 1.41837
H 0.246895 0.94023 1.38454
H -0.699649 1.57985 2.60965
H -0.201845 -1.31439 2.14255
H -1.20842 -0.633441 3.44507
C 0.924238 -0.403825 3.7549
H 1.83405 -0.257242 3.16766
H 1.02969 -1.33209 4.32188
H 0.831352 0.42137 4.46521
