22
Coordinates from XML
N -0.535846 0.464405 -1.67445
C 0.550683 0.140601 -2.6647
H -0.155318 1.00058 -0.876489
H -0.964995 -0.401061 -1.30632
H -1.27859 1.03008 -2.11839
H 1.31345 -0.427279 -2.12316
H 0.979244 1.09476 -2.98639
C 0.0887663 -0.659224 -3.89608
H -0.334633 -1.62115 -3.59685
H 0.934547 -0.850536 -4.56115
H -0.667829 -0.104873 -4.45676
N 0.720858 0.946543 3.07281
C -0.210861 0.155369 2.19421
H 0.951371 1.85515 2.63655
H 1.60295 0.430483 3.22875
H 0.287295 1.1312 3.99295
H 0.295094 0.0252494 1.23262
H -1.10359 0.770684 2.04592
C -0.61854 -1.21961 2.7533
H 0.259063 -1.85392 2.90016
H -1.29276 -1.72533 2.05764
H -1.13421 -1.11129 3.71062
