638
Coordinates from XML
N -0.235383568566 -0.327214463508 -4.129969163288
C -0.391860523786 -0.266460245052 -2.6340338111
H -0.95623493981 -0.939016742956 -4.548418927701
H 0.693651844582 -0.701712192279 -4.385631737125
H -0.33014657067 0.614346114781 -4.546168232178
H -0.313400424274 -1.293933211904 -2.265640537448
H -1.401928496924 0.10576160601 -2.437123904456
C 0.635932617578 0.621543018692 -1.909838714703
H 1.652237960991 0.260854593126 -2.086267827701
H 0.45195352079 0.610613141744 -0.832669311436
H 0.567947368937 1.655349660209 -2.257305157145
N -0.154995457325 1.168413981193 3.356911873164
C -0.239132968342 -0.017445128087 2.433517189035
H -0.603252782309 1.996634418583 2.930127136339
H 0.830729024931 1.40411804906 3.560650767024
H -0.631537271418 0.969192362091 4.252432202361
H 0.253166128963 0.272638693132 1.500209488242
H -1.301763122532 -0.189404642483 2.236522242618
C 0.401001674325 -1.308192213003 2.975335126666
H 1.466023518147 -1.160338269648 3.170187909344
H 0.296111439163 -2.11624478088 2.247110724634
H -0.082961834297 -1.62055257974 3.903947757591
N 0.405250745189 -0.123043254561 -3.992683299071
C -0.492206965787 0.28430832528 -2.854863876707
H 0.011528902206 0.185766925422 -4.89747516298
H 0.514744674761 -1.150589074088 -4.022337431348
H 1.343083216871 0.299153695743 -3.888002812288
H -1.470202641917 -0.168151317598 -3.045586234964
H -0.588687542315 1.373306999633 -2.903168262734
C 0.003983160866 -0.128578269863 -1.457478069829
H 0.098400545801 -1.214831711073 -1.385098914116
H -0.70177364359 0.204506945682 -0.692479203327
H 0.976805806793 0.320697310186 -1.243285055373
N 0.096230088191 1.159945814461 2.372974367408
C -0.17495651875 0.055550260503 3.359263866041
H -0.078465576378 2.084309873826 2.801998194758
H -0.514752262991 1.068283839347 1.544109270868
H 1.079382754256 1.132674216326 2.054532678482
H -1.216676420976 0.163450182241 3.676671397608
H 0.478835117984 0.232347137991 4.218833111621
C 0.055489843105 -1.367386074309 2.819343745209
H -0.595529229322 -1.567797374955 1.964879350861
H -0.162438912 -2.105559907773 3.595145358308
H 1.093661303903 -1.499101896451 2.504761395287
N -0.562173581577 0.384129771839 -1.605582053213
C -0.013592237547 0.44432593589 -3.006093967235
H -0.991801905962 1.286918455484 -1.342103345403
H 0.189111227842 0.174156277034 -0.927200916967
H -1.283903827703 -0.351829279455 -1.526792836027
H 0.715734549231 1.259970209549 -3.025514210144
H -0.850990374894 0.700360522228 -3.662425117087
C 0.650510197316 -0.853899144227 -3.498990176254
H 1.496408571101 -1.122662748662 -2.861556266379
H 1.019382777646 -0.725451650411 -4.519625250319
H -0.064441373551 -1.680304335569 -3.495858764429
N -1.065753134992 -0.008008489482 3.296922307282
C 0.002675239845 0.490909672982 2.361219274528
H -1.839980688089 0.673911684301 3.364638675428
H -0.681676347419 -0.15532298939 4.245343183668
H -1.454715629928 -0.905601325725 2.962597178169
H 0.344611530781 1.452812476531 2.755418283109
H -0.477927012349 0.654473905334 1.391771934452
C 1.205978826019 -0.453277473155 2.188192721451
H 1.706396041734 -0.622574196679 3.144760101681
H 1.930981122623 -0.018091052771 1.495916661608
H 0.886885416834 -1.418088923223 1.786409998163
N -0.279551649127 0.316806058958 -3.913166410708
C -0.456109594408 0.139517217131 -2.42878281843
H -1.122395970499 0.743680484014 -4.333190944591
H -0.115824889211 -0.594278987238 -4.373423171751
H 0.52754336377 0.930556459959 -4.114775189105
H -1.340545340674 -0.489426240011 -2.288163376865
H -0.656049779085 1.132197308715 -2.013848984642
C 0.746249756156 -0.49076359529 -1.703217407799
H 0.957158276074 -1.488058730305 -2.096943115876
H 0.536594215543 -0.582870110663 -0.634656395167
H 1.639226391246 0.127418261023 -1.823861580512
N 0.681607806766 0.572238830215 3.613376288641
C 0.372619422601 -0.271133409144 2.405382855369
H 1.701043687039 0.6101716861 3.781722712289
H 0.22954133112 0.182017607163 4.457225800152
H 0.340193289451 1.539077010274 3.481474525776
H 0.787592560969 -1.265091295583 2.598813213169
H 0.905212717604 0.178574805199 1.561779374953
C -1.123602079188 -0.39358785947 2.065245823162
H -1.672989891114 -0.849659430835 2.892452978112
H -1.259528441825 -1.01876167468 1.179275497296
H -1.555907965811 0.588704471082 1.859516650631
N 0.229819335835 0.670080552482 -1.973848639387
C 0.289508200086 0.254185468896 -3.419347587652
H 0.802992779479 1.515371931303 -1.812654277538
H 0.586067019862 -0.082888349306 -1.361603492436
H -0.742651170746 0.881479749266 -1.693938819035
H 1.343683672043 0.078672843243 -3.654888839792
H -0.069534431144 1.104296318309 -4.007531114088
C -0.533060372933 -0.999226487692 -3.768212153443
H -0.18383436378 -1.863162031041 -3.197461336739
H -0.435861648542 -1.230744972444 -4.831797266537
H -1.591817152577 -0.84145684465 -3.548544413452
N -0.316004375914 0.424195997002 1.870831671427
C 0.256949086734 -0.500545725864 2.911300684002
H -0.186705259124 0.032634988293 0.922680497428
H 0.149443575901 1.346636087672 1.905200009724
H -1.328135348314 0.566781069409 2.025745860369
H 1.316060901982 -0.631879262878 2.66921814899
H -0.255658153115 -1.460617419957 2.797037444267
C 0.116287879509 -0.009766766278 4.363443071342
H 0.630014497519 0.944781834073 4.501362811834
H 0.555182148777 -0.736276238376 5.051787099394
H -0.935896551294 0.119387820751 4.628656402314
N -0.188337191606 0.472581970726 -1.521731951062
C -0.458006925875 -0.319194484282 -2.773277783309
H -0.967227799515 0.370345236047 -0.849492406783
H -0.080765677429 1.477203461708 -1.740553176256
H 0.678855647883 0.147004152458 -1.062696356048
H -1.40023699054 0.053476538784 -3.186665135205
H -0.592071031965 -1.360678520881 -2.465223007226
C 0.644568547539 -0.235355380393 -3.84410242142
H 0.788018015527 0.796924022683 -4.172616359356
H 0.371422030513 -0.836036046425 -4.71521401662
H 1.593297113205 -0.611744701713 -3.453773992804
N 0.846950805236 0.536788110014 3.40093984048
C 0.273544666203 -0.124006765591 2.175968729558
H 1.848249267482 0.755009343977 3.263790956226
H 0.761513153905 -0.082363820955 4.224389895743
H 0.349684241221 1.419384929109 3.607063185437
H 0.863705109411 -1.028351806259 1.998652662624
H 0.425836401119 0.569042437562 1.342872121964
C -1.217783914555 -0.491994572806 2.275422806662
H -1.390315768166 -1.191738434155 3.0968186986
H -1.552855247694 -0.964181249218 1.348584828411
H -1.826579005536 0.399715645927 2.443745466175
N 1.210150976641 -0.058334950668 -2.105287754335
C -0.15665360499 -0.534378184871 -2.519083314123
H 1.873891552682 -0.84964897518 -2.057334691566
H 1.174983112166 0.390143508588 -1.17450905223
H 1.578001867068 0.630725932987 -2.782501778945
H -0.468981489743 -1.279745776359 -1.781215619434
H -0.039754273794 -1.023442607046 -3.491045486962
C -1.224492541039 0.569508634592 -2.621655103481
H -1.363437267118 1.065027303647 -1.657676091774
H -2.182483215184 0.141052232009 -2.92651683105
H -0.935686440222 1.320562652479 -3.360992640096
N -0.14316110241 -0.622963072601 1.329414961859
C -0.168798249321 -0.356599459499 2.810762946909
H -0.483969818811 -1.577168965358 1.123576513183
H 0.818079919102 -0.536746522108 0.958873325354
H -0.745208058905 0.050190587362 0.826283143789
H 0.458907697596 -1.120078564074 3.280502438523
H -1.203512935381 -0.495823005888 3.138699298482
C 0.320947399564 1.042089998455 3.226916854864
H 1.35698133956 1.198157607185 2.916471207477
H 0.269629591596 1.152525651615 4.312933495021
H -0.299115943946 1.820151654135 2.774973711652
N 0.023710864365 0.615343778989 -1.775960390356
C -0.104570464618 0.392599836735 -3.259175724461
H -0.105592885337 1.614545204786 -1.543783765999
H 0.957885838862 0.324749101058 -1.44190867343
H -0.687817624825 0.069830982544 -1.26129446756
H 0.651807620386 1.020454670357 -3.740071544077
H -1.098249018582 0.749256857574 -3.547201120873
C 0.071646220031 -1.067506922425 -3.713491701956
H 1.062564083761 -1.440529780622 -3.443240600382
H -0.036662651973 -1.14110340529 -4.798440751246
H -0.680851623035 -1.710811690958 -3.25087191675
N -0.066427217865 0.513501038789 3.994132158803
C 0.34030574389 -0.453458040859 2.914522448488
H 0.361923553671 0.25317099544 4.898440081445
H -1.093346223001 0.51820347161 4.113018421329
H 0.236147248216 1.47348219764 3.758287122334
H 0.019752867244 -1.447081250217 3.24243868779
H 1.433302714792 -0.430559504233 2.865602036388
C -0.245175718548 -0.155376149158 1.52250027967
H -1.337298875552 -0.182608069657 1.547507393513
H 0.098490679506 -0.900565044816 0.800801859112
H 0.070786699016 0.830287412449 1.172148758041
N 0.216592813398 0.789674403629 -3.990375856368
C 0.291956138423 0.204000187051 -2.605708108575
H 0.78378856176 1.651801769311 -4.05404941668
H -0.759537645106 1.026895196823 -4.234536300864
H 0.571088803462 0.117740971059 -4.691500716378
H -0.065568869147 0.974874492665 -1.916143780316
H 1.349343168775 0.008152934515 -2.402886882325
C -0.520560466788 -1.087473977621 -2.402537432194
H -1.582307028446 -0.911069534075 -2.591417379259
H -0.411233584455 -1.444790925474 -1.375583720883
H -0.17282668884 -1.874168817784 -3.076557864255
N 0.180067231462 0.269773096163 4.253997468644
C 0.488910023532 -0.227897202449 2.867296673892
H 0.996492641726 0.147630292878 4.87654033382
H -0.616016283931 -0.249805526045 4.660208979147
H -0.064642875019 1.274031701955 4.236119253491
H 0.769266834978 -1.281260243822 2.964232994458
H 1.355275826197 0.339608697672 2.513874437183
C -0.664611325205 -0.091511049976 1.857269748052
H -1.537906749235 -0.659383571773 2.187384613904
H -0.358271050739 -0.473559478815 0.880306940233
H -0.954280789758 0.955477800958 1.738876158592
N 0.181747755501 0.904251660286 -1.950846968582
C -0.462134012714 -0.283232711894 -2.615147973315
H -0.333046505236 1.167297273961 -1.093628905229
H 0.188443319313 1.719712346981 -2.586219093624
H 1.158594478205 0.691171335204 -1.68796815714
H -1.496144841183 -0.00056080522 -2.835348992128
H -0.463933051702 -1.093768184956 -1.87990043781
C 0.229195367602 -0.758407663863 -3.905744551814
H 0.23341791845 0.03454414571 -4.657615232887
H -0.29855824056 -1.62031349709 -4.321504286903
H 1.261924882348 -1.05437129121 -3.705778616314
N -0.382867855682 -0.286121439498 1.638293491789
C -0.411370162586 -0.181256940586 3.139689424203
H -1.238605320129 -0.748606259208 1.287793680975
H 0.433367118273 -0.838137921377 1.32563238064
H -0.323294155643 0.65162269603 1.207219339645
H -0.507238993838 -1.200505165987 3.526357901211
H -1.311716609529 0.383858162866 3.399653120569
C 0.821412269473 0.49478666838 3.766251144612
H 1.731649741958 -0.060044278838 3.525979866693
H 0.720497080688 0.530678995957 4.853812434422
H 0.930335717684 1.518393396369 3.399541390791
N -0.071056128186 -1.208822116723 -2.697266703639
C 0.555762462408 0.122171907678 -2.37859437664
H 0.655894387709 -1.919944904834 -2.8840185753
H -0.675233693722 -1.13782789121 -3.533118358328
H -0.649960849782 -1.539062694892 -1.90698289516
H 1.175667112003 0.394030351437 -3.238467332877
H 1.202022188313 -0.033268541345 -1.509257525022
C -0.443090546074 1.255521228418 -2.083333373244
H -1.092884515176 1.433295064533 -2.943719440199
H 0.091980702699 2.182401445212 -1.862305058201
H -1.066844534709 1.007478466099 -1.221059145157
N 1.062314183923 -0.106951382176 3.043990243231
C -0.415442807741 -0.148299394592 2.76022395567
H 1.255598827961 -0.393098080176 4.018561968402
H 1.434222158453 0.84803476689 2.908326640988
H 1.574007021328 -0.745914779469 2.412615369508
H -0.894916343998 0.521410722502 3.480754160444
H -0.745461064067 -1.173621061095 2.953519994921
C -0.813188227436 0.261285680896 1.330746525785
H -0.500439230314 1.286962931694 1.120332255131
H -1.897687504687 0.203305315889 1.209250482575
H -0.351317248223 -0.401627749113 0.594993797232
N -0.845090913406 -0.850370572293 -3.012634441808
C -0.231810961486 0.281593609941 -2.232542472093
H -1.786479613767 -1.076574840101 -2.649801314933
H -0.260399953735 -1.700232117323 -2.944880952157
H -0.936007214622 -0.599246896051 -4.011338171401
H -0.195784949772 -0.037938551302 -1.18651588863
H -0.914410113831 1.132334471143 -2.321189594996
C 1.176185264119 0.699135867101 -2.693597965138
H 1.876476809428 -0.134941467757 -2.604117943107
H 1.546156752663 1.523064917773 -2.078355158821
H 1.160591705157 1.03075332768 -3.734702088393
N 0.871931240093 -0.709448113483 3.209552449938
C -0.496379600879 -0.25975288661 2.771947221556
H 0.812739469111 -1.591346930503 3.746003514516
H 1.316765510436 0.004503967167 3.810479731613
H 1.483227133884 -0.8698787505 2.391434270797
H -1.095894540987 -0.141172910597 3.679741754904
H -0.918074398059 -1.071110438221 2.170754781837
C -0.520917042541 1.049218382663 1.962404631153
H -0.111893878459 1.875417119938 2.549086504974
H -1.547171487305 1.302591523647 1.685158243207
H 0.065503688447 0.949036468267 1.045788351025
N 0.381885568733 -0.502535506661 -3.555359358752
C 0.077568700198 -0.402492529533 -2.084515608807
H 0.769265583929 -1.432979880691 -3.786094974907
H 1.073234764972 0.213263610736 -3.835335450217
H -0.474821769074 -0.361537573328 -4.116527902278
H 1.015395218113 -0.592825241479 -1.553643524441
H -0.630833517505 -1.203956096473 -1.853469343046
C -0.506108248067 0.948460769812 -1.633280106487
H 0.190906780923 1.762487265351 -1.846893863586
H -0.697789376709 0.936585135112 -0.557464598222
H -1.449117152544 1.153779285222 -2.145812649853
N 0.466471554862 1.115842156916 2.783428528178
C 0.442730165992 -0.358182772989 2.478985523703
H 1.427247584444 1.428349795121 3.003149557997
H -0.136477584921 1.331449375211 3.595022368503
H 0.126716917882 1.661991652851 1.97409205375
H 0.842635710195 -0.869750245785 3.359862680515
H 1.12233134041 -0.517459009566 1.636172820731
C -0.945888330077 -0.927695753413 2.137282856162
H -1.63830737575 -0.786901795447 2.970849200185
H -0.874390590442 -1.998281862102 1.92993013564
H -1.359802520145 -0.435726816935 1.253680737841
N 0.156413641327 0.422967357469 -4.102398697518
C -0.534225477864 -0.196190957997 -2.91679367141
H -0.477857591833 0.457142630401 -4.91821790997
H 0.992190020987 -0.125286630737 -4.366243551587
H 0.45760875936 1.388227448772 -3.887241845174
H -0.852760328866 -1.197263164055 -3.223323075965
H -1.42073513637 0.412661175654 -2.71440880828
C 0.325698616561 -0.295190493347 -1.643963470901
H 1.212836241362 -0.907785709107 -1.822327872032
H -0.248579175238 -0.753380191373 -0.834933859534
H 0.647216671525 0.696170781851 -1.315421149321
N 0.104411335053 1.241803690911 2.900630305001
C -0.281983574709 -0.147161005367 2.467646775634
H -0.214474240989 1.942041650083 2.209972847337
H 1.130790567759 1.323886347843 2.992971019209
H -0.321821272021 1.472078842685 3.813886639906
H 0.173562962031 -0.31092660269 1.486204739191
H -1.370956184525 -0.152695547311 2.359628480817
C 0.147129512721 -1.269474990206 3.429748824862
H 1.233700014161 -1.287206806152 3.544422498401
H -0.171256571127 -2.240707785956 3.042968717213
H -0.304880489875 -1.129431636108 4.414728982645
N -0.18253059552 1.187798976293 -2.822352849096
C -0.498350347774 -0.181274810937 -2.28208112144
H -1.013797905457 1.800712892394 -2.773771733637
H 0.119072331978 1.130816419711 -3.80952424342
H 0.57658742521 1.629905183231 -2.277357485363
H -1.325951707715 -0.574462481492 -2.880453692374
H -0.839029007851 -0.043054717459 -1.251356529501
C 0.676094427464 -1.175930055529 -2.308679802277
H 1.025813982972 -1.335337221949 -3.331609668441
H 0.363547494741 -2.140292130796 -1.900535347174
H 1.511076974825 -0.805783367194 -1.708757582805
N 0.460128256679 -0.268057227328 1.362583519379
C 0.4318587644 -0.070500425693 2.854619322044
H 1.400901105224 -0.562315672665 1.050514058059
H 0.217517934141 0.609417242711 0.872790210699
H -0.216688269264 -0.995475535301 1.077066427886
H 1.189524771277 0.683727295707 3.088399251027
H 0.727561613718 -1.02307656585 3.304861979075
C -0.928295371066 0.369994584478 3.424980566596
H -1.237957405683 1.325425720419 2.99444521138
H -0.86229039145 0.489492369613 4.509243134249
H -1.698310762897 -0.374933253992 3.209876158187
N -0.355528654683 -0.753355036062 -2.062384597285
C -0.43701964714 0.013743042037 -3.355024704672
H -1.22728530844 -1.28399171295 -1.896571486612
H -0.211731119291 -0.111666363508 -1.264715107
H 0.431116707271 -1.423776015524 -2.083897358927
H -1.304514298248 0.676122484051 -3.275798484299
H -0.620619799322 -0.719585687818 -4.146276804946
C 0.814711252842 0.841208665947 -3.698299333471
H 1.010631910157 1.586934620932 -2.9239558571
H 0.67329845567 1.363796614864 -4.647596942255
H 1.692088816918 0.19643301859 -3.790949586208
N -0.412154780686 0.016580551489 4.166547530228
C -0.383118672827 -0.301379992727 2.695474218913
H -1.249702551444 -0.393764007246 4.612820998758
H -0.433187981258 1.0387807384 4.319462806619
H 0.424610129912 -0.363949552218 4.639579599609
H -1.306818633359 0.099342090195 2.266789621485
H -0.394401313815 -1.392147694677 2.607961645566
C 0.828134359244 0.265243175239 1.933128265083
H 0.852808095784 1.355643594522 2.000344748576
H 0.772432934719 -0.01055184041 0.877147131611
H 1.761901716471 -0.130106154908 2.340422414844
N 1.012411943887 -0.545707239844 -2.088600867698
C 0.118914309326 0.556520862227 -2.591347203874
H 1.917939435806 -0.164215647497 -1.76686641159
H 1.199863982141 -1.234384060911 -2.836467613101
H 0.571173156662 -1.041322996329 -1.295876849725
H 0.658082315008 1.055966086041 -3.402163224287
H -0.010208835922 1.260566662196 -1.763575101779
C -1.259925786454 0.094505186094 -3.096033820278
H -1.153392358819 -0.603240866346 -3.930240628211
H -1.842764303724 0.952276013732 -3.440693309688
H -1.819139127036 -0.399660332301 -2.297790765285
N 0.436393634633 0.490222576875 3.630075464823
C 0.451091635942 -0.226606883288 2.306467447206
H 1.387056199553 0.530506414199 4.034608323823
H -0.180067384477 0.003943667687 4.302553965443
H 0.092248512377 1.458568619999 3.517789714644
H 0.853785797356 -1.226954408236 2.492780438147
H 1.143162166195 0.320397269122 1.658868214268
C -0.919839461862 -0.342277365529 1.616152055438
H -1.624184311031 -0.894208802195 2.243344167928
H -0.820598706067 -0.872789800416 0.665904970507
H -1.336040472673 0.647427188625 1.412749231496
N 0.052876227172 1.158413257901 -3.228433040756
C -0.407957596289 -0.265366616897 -3.065700911859
H -0.480275454678 1.631944382519 -3.977129569436
H 1.056042989997 1.192137797582 -3.47589576681
H -0.081807316001 1.688943550178 -2.351429069115
H -0.26794268063 -0.755936899241 -4.033847032221
H -1.477630871698 -0.226894291339 -2.837931528177
C 0.32445054958 -1.063242389471 -1.97192779329
H 1.394508541348 -1.121558508456 -2.185645007896
H -0.069226768053 -2.081346483936 -1.919545391516
H 0.189540595633 -0.594330985803 -0.994158651551
N -0.737941041867 -0.928614083019 3.154712948378
C 0.433342920617 -0.249217783059 2.497055562403
H -0.669359632645 -1.955259622797 3.053103599083
H -1.627056483334 -0.620688401777 2.726490802785
H -0.770765508137 -0.705742491374 4.163667269521
H 0.425779065372 -0.55271767335 1.445675091979
H 1.335737462629 -0.643324601934 2.974469255088
C 0.42855453636 1.28718379757 2.590940225243
H -0.461277581293 1.70197068362 2.111095912102
H 1.309068494538 1.698793259448 2.091405928175
H 0.445034374476 1.611736371681 3.634254720624
N -0.279303469603 -1.21518644818 -2.459143227047
C 0.437695145538 0.055363126135 -2.830108799025
H 0.130045154143 -2.024364722319 -2.955825377722
H -1.280757295702 -1.156283403544 -2.708821750202
H -0.209277659172 -1.391315440631 -1.442869160669
H 0.35168439383 0.161843764805 -3.915850164673
H 1.490671389437 -0.088646530272 -2.569221511588
C -0.095437276416 1.325391735818 -2.142966727289
H -1.144656640848 1.492787460702 -2.3983435467
H 0.477843979491 2.198144589231 -2.465321736688
H -0.010150019972 1.243137577566 -1.056655799406
N -0.293008564176 0.806145780687 1.564965905002
C -0.228778181664 0.211983317996 2.94657515381
H -0.827342004932 1.691281637525 1.572122924624
H -0.755420762486 0.1554240461 0.908113651911
H 0.656528233068 1.005373531168 1.207997855707
H -1.261821405488 0.057850467918 3.273125381397
H 0.239830902694 0.961885511197 3.591255039328
C 0.547696536568 -1.113273542424 3.047314130169
H 0.089788233939 -1.879566514451 2.417064187126
H 0.546580942791 -1.474135099501 4.078836978037
H 1.585844389897 -0.978965866396 2.733751413177
N -0.350639198069 1.178528919746 -2.867099917927
C -0.392144085758 -0.219389556183 -2.310233713659
H -1.155962077956 1.731224605012 -2.527966503887
H -0.382964052263 1.161787177511 -3.900247302025
H 0.516616709269 1.661581204499 -2.578541959307
H -1.344276751455 -0.657366310219 -2.6251782147
H -0.387391885479 -0.125178435471 -1.219976125092
C 0.766930135303 -1.129447843421 -2.754877323083
H 0.774500110607 -1.244314936063 -3.84154570387
H 0.661606102218 -2.12091444375 -2.307482059267
H 1.727901225157 -0.713970081179 -2.441789654456
N -0.448635029184 -0.522337454706 3.699549758774
C 0.396787728297 0.370784545505 2.831452906819
H -0.220315404287 -0.383803375659 4.698402796878
H -0.288310666238 -1.516752839402 3.46684212949
H -1.453106845916 -0.317078526569 3.566722216784
H 1.441142331599 0.123558337336 3.045399052977
H 0.201881200271 1.39883779668 3.151886809801
C 0.135126013141 0.242693885211 1.319998969358
H 0.33316495731 -0.775883041795 0.977389069232
H 0.786596050128 0.92230130376 0.765037492171
H -0.901604008169 0.494410770816 1.083481386259
N 0.715897936864 0.386975625675 -3.494672480267
C -0.302573963436 -0.437411379436 -2.753659832195
H 0.814228414042 0.056810993184 -4.469532145352
H 1.640897507002 0.323001004139 -3.03750539654
H 0.434712937763 1.381532479096 -3.517687164576
H 0.039519406037 -1.476037361389 -2.796068381747
H -1.242665811118 -0.349774631054 -3.3069292479
C -0.526435120963 -0.027068450265 -1.287074704038
H 0.399674667011 -0.116445791764 -0.713984593544
H -1.277592845562 -0.67233044138 -0.824840208141
H -0.877511489762 1.005762078727 -1.222906360183
N -0.968566456557 0.72093999306 2.238892305146
C 0.405003729945 0.355317648399 2.734496920071
H -1.107889810609 1.744975221527 2.270033720886
H -1.697888563239 0.27819458853 2.82265978529
H -1.100840193824 0.406873828966 1.262877901
H 0.487207563308 0.743577638659 3.754333671048
H 1.121400681064 0.880400520058 2.095260411088
C 0.716535881496 -1.152093266365 2.729288455596
H 0.017067211552 -1.694569355596 3.370040510355
H 1.728585601183 -1.3298380194 3.101342028687
H 0.648648769226 -1.558347884573 1.717132528936
N -0.383328910177 0.362301903857 -3.76974260556
C -0.221323539994 0.375242676939 -2.273218136357
H -0.973015594406 1.152703017279 -4.080491102328
H -0.830529763815 -0.516019843131 -4.081641635175
H 0.535063621151 0.441440192717 -4.237749340273
H -1.227198355058 0.32166220893 -1.845532178244
H 0.225112921163 1.339707297668 -2.012330402626
C 0.642900786831 -0.76447558367 -1.704424962295
H 0.208815044262 -1.737703786268 -1.946285163785
H 0.709578823059 -0.681155358184 -0.616825094187
H 1.655707209272 -0.723615417531 -2.112670834516
N 0.291927382157 1.180533369916 2.364959296847
C -0.454280057986 0.028176002576 2.982410221789
H -0.131451639081 2.081667437656 2.643772012188
H 0.270378931184 1.119441253192 1.333202485901
H 1.280233596449 1.180849353043 2.668255754207
H -1.492937425257 0.107680471198 2.647089178932
H -0.41846451061 0.173438448602 4.066465569287
C 0.096883808348 -1.365086796872 2.629700369895
H 0.061291372671 -1.534136797729 1.550693790196
H -0.498716178752 -2.141198164393 3.116704984011
H 1.13190465463 -1.46855668095 2.964568889693
N 0.96381229315 0.50222174732 -1.948707413762
C -0.021369525649 0.267483002503 -3.062400906645
H 1.637160151604 1.243320490278 -2.206397632047
H 1.495933241597 -0.359975116906 -1.743323473438
H 0.476696060031 0.794965837215 -1.085135362707
H 0.560987418855 -0.005596245323 -3.947758688842
H -0.52253385922 1.222616482474 -3.247101405545
C -1.072488946728 -0.820970868966 -2.779941692218
H -0.592441118251 -1.786307379895 -2.60167384222
H -1.745408205637 -0.926930966059 -3.634467187691
H -1.671802230178 -0.562793413383 -1.903426384645
N -0.419439864068 -1.165758420157 2.418881057233
C -0.385048483364 0.265049051666 2.885363534942
H -1.264849658943 -1.645124714574 2.771753794075
H 0.409504797793 -1.681383849921 2.759027883106
H -0.428722179556 -1.213664661669 1.386235501031
H -0.409727027602 0.241982110558 3.979177584304
H -1.300985629648 0.73868178275 2.518906022805
C 0.8378778176 1.071971390301 2.413458165909
H 1.764039741184 0.620225225236 2.777119295193
H 0.784811940406 2.095135787966 2.793695357184
H 0.876259480757 1.11487143471 1.322221468935
N 0.389473914632 -0.322435377993 -3.819744342476
C 0.146645622325 -0.431380332442 -2.338135720789
H 0.879138358985 -1.161900144141 -4.172670074366
H 0.970934651556 0.504720403901 -4.035233143333
H -0.504348441033 -0.231429449506 -4.331151745232
H 1.125582434944 -0.556927719512 -1.865387522063
H -0.443312021994 -1.339549882405 -2.180852617659
C -0.579715733748 0.771450541244 -1.709673991475
H -0.001776205541 1.688517982949 -1.847779503316
H -0.716009449414 0.61203815467 -0.637165992588
H -1.564783174056 0.908988690656 -2.162262645996
N 0.242696147469 1.218058005381 2.570002830798
C -0.556934486125 -0.057308375265 2.575492406084
H -0.360355100218 2.026703918654 2.343177097008
H 0.999171007134 1.172439199249 1.866878794356
H 0.671414432627 1.384944025315 3.495793143138
H -1.005625911972 -0.15379688237 1.582045748598
H -1.353593508296 0.072739226448 3.314398321463
C 0.249180849375 -1.326957161975 2.903420904046
H 1.045348487426 -1.480476370549 2.170857686283
H -0.403437350275 -2.203361338285 2.887083865363
H 0.698920972665 -1.254689419907 3.896709527588
N 0.354057097048 0.884907363717 -2.026101704918
C -0.308790287226 -0.37041896569 -2.526888927557
H 0.179833908563 1.011909455697 -1.014891695511
H -0.011091762203 1.714584150297 -2.523114219646
H 1.376274642463 0.842978801161 -2.174598504848
H -1.376925902776 -0.272449964194 -2.309958822589
H 0.098916087115 -1.198691223234 -1.939266167781
C -0.110519401773 -0.654680143694 -4.026639344847
H -0.519816806582 0.157486067121 -4.632412902975
H -0.620679151911 -1.579759080796 -4.306331466776
H 0.950601017994 -0.765061178384 -4.2631780872
N -0.557200971412 0.752390284265 2.006526875533
C -0.310711491644 -0.477332701019 2.839006909124
H -1.39913381194 0.633007487337 1.418372326339
H 0.246894573429 0.940229841435 1.384541863711
H -0.69964949358 1.579851733969 2.609647080704
H -0.20184543082 -1.314388353887 2.142547072736
H -1.208417807046 -0.633440970421 3.445070855923
C 0.924237633313 -0.403825441702 3.754902327332
H 1.834048695245 -0.257241909883 3.167657043753
H 1.029689448544 -1.332093437711 4.321876873366
H 0.831351909119 0.421370095356 4.465209065692
N -0.928487678245 0.566233556834 -3.399823123414
C 0.480265202685 0.236134228109 -2.984554000861
H -0.933179917801 1.31028590038 -4.117731910692
H -1.480794174245 0.895456288994 -2.590324126191
H -1.39794217142 -0.265942769859 -3.79458007931
H 0.924901447534 1.162888872376 -2.609061353801
H 1.012210728554 -0.072206753009 -3.889827288313
C 0.600275025188 -0.864390611027 -1.915063563107
H 0.082768988181 -0.57179953805 -0.998178679943
H 1.650868631792 -1.042081544944 -1.672286506185
H 0.169503262866 -1.802288307997 -2.274082634333
N 0.612110798627 0.283574137523 1.741424391314
C 0.24083718181 0.313650130694 3.199933913597
H 1.396121097671 0.929980838419 1.550334983109
H -0.190006117195 0.566683341162 1.153907300867
H 0.901379444834 -0.667354517506 1.457177390508
H -0.021596542057 1.348941350087 3.438410160894
H 1.139094880031 0.036413367633 3.760141743688
C -0.920530928826 -0.616993296474 3.592991159512
H -1.831078712812 -0.350684282961 3.050697728148
H -1.124396241149 -0.535059615581 4.663499216449
H -0.674813798655 -1.6583621667 3.37098876591
N -0.535845748689 0.464405424552 -1.674450037676
C 0.550683460239 0.140600511136 -2.664704220547
H -0.1553183207 1.000583111702 -0.876489325454
H -0.964994557752 -0.401061231753 -1.306323067863
H -1.278594444657 1.030075578962 -2.118386592995
H 1.313453479314 -0.427278777473 -2.12316447088
H 0.97924364331 1.094757614726 -2.986387790619
C 0.088766269217 -0.659224472225 -3.896077267244
H -0.33463345154 -1.621148387416 -3.596853302385
H 0.934547169773 -0.850536028104 -4.561145873061
H -0.667828538346 -0.104873315903 -4.456764512821
N 0.72085822141 0.94654278671 3.072809412259
C -0.210860855873 0.155369427546 2.194206562686
H 0.951371184264 1.855153716962 2.636553884748
H 1.602947981852 0.430482824364 3.228753213632
H 0.287294854314 1.13119726396 3.992952632004
H 0.295094284528 0.02524942028 1.232620129488
H -1.103587029984 0.770684130898 2.045923987859
C -0.618540057548 -1.219614429953 2.753298805199
H 0.259062983808 -1.853920305505 2.900162283787
H -1.292756719236 -1.725333841477 2.057639791378
H -1.134214413078 -1.111290854276 3.710616441463
N 0.593626773934 -1.078952160445 -3.035127762528
C -0.078299260417 0.034363867386 -2.276812843094
H 0.917191063476 -1.818251710557 -2.388775490436
H 1.41325356484 -0.724188919274 -3.555775115102
H -0.059743849111 -1.506207440356 -3.712842871427
H 0.65500034164 0.416655845962 -1.560087773322
H -0.911181258726 -0.415465352528 -1.727703402359
C -0.599411334476 1.190861878008 -3.148777081579
H 0.219391671786 1.660465274115 -3.699353334791
H -1.071237752102 1.952588781109 -2.523146479448
H -1.340813373934 0.83139518283 -3.866563822641
N 0.442998575139 0.264144903895 1.70484575399
C -0.440369007493 -0.351433502939 2.756855083556
H 0.149439559548 -0.035551493303 0.759840935075
H 1.427522474601 -0.019763743524 1.842058255999
H 0.395426789539 1.296052603069 1.745360438995
H -0.367267428614 -1.43662503301 2.636083434866
H -1.464302177673 -0.036872988863 2.532862954031
C -0.087730268408 0.031732832655 4.205370376698
H 0.929266652979 -0.282372076194 4.452666335878
H -0.774376702017 -0.454826225765 4.902535100047
H -0.163433716288 1.112252781482 4.349788944985
N 0.220928247247 1.082762836019 -3.35763682221
C 0.499009573634 -0.274163789438 -2.768213714806
H 1.081288471362 1.48877062318 -3.762565081813
H -0.131800599162 1.730782035103 -2.633501352889
H -0.488634969232 1.017740342674 -4.106656268739
H 1.276521378345 -0.13675962703 -2.010476439368
H 0.896684680379 -0.894378294476 -3.577378966973
C -0.720453275149 -0.969281644833 -2.136479116222
H -1.127749009095 -0.369689800326 -1.318738492057
H -0.433325236615 -1.944222563464 -1.734845715883
H -1.50632747303 -1.124273277056 -2.879776118602
N 0.266411949002 -0.460779928666 3.907631457147
C -0.16404173376 0.538298063483 2.867174113908
H 0.230981145104 -0.042757267749 4.85263444497
H 1.234290656792 -0.778384581913 3.731402087735
H -0.352447261628 -1.288821619648 3.897719367832
H 0.509147327371 1.396598652861 2.95496292383
H -1.178050261571 0.853099400776 3.132215151611
C -0.14759988057 0.015221225028 1.419594284664
H 0.859435586717 -0.296199167284 1.131502580204
H -0.472615340108 0.799163783183 0.731073616729
H -0.821318952342 -0.837884592262 1.30813051684
