8
Coordinates from XML
C -0.004847312273 0.064375068434 -1.838938475486
C -0.046847312273 0.073375068434 -0.327938475486
O 0.948152687727 -0.584624931566 0.208061524514
O -1.014847312273 0.433375068434 0.311061524514
H 0.953152687727 0.451375068434 -2.193938475486
H -0.125847312273 -0.953624931566 -2.215938475486
H -0.802847312273 0.688375068434 -2.247938475486
Li 0.236952687727 0.082475068434 3.479061524514
