8
Coordinates from XML
C -0.019484901178 0.068478223848 -1.875982637215
C -0.061484901178 0.077478223848 -0.364982637215
O 0.933515098822 -0.580521776152 0.171017362785
O -1.029484901178 0.437478223848 0.274017362785
H 0.938515098822 0.455478223848 -2.230982637215
H -0.140484901178 -0.949521776152 -2.252982637215
H -0.817484901178 0.692478223848 -2.284982637215
Li 0.360072993559 0.047962434374 3.790648941732
