8
Coordinates from XML
C -0.00039239391 0.063126282004 -1.827664165394
C -0.04239239391 0.072126282004 -0.316664165394
O 0.95260760609 -0.585873717996 0.219335834606
O -1.01039239391 0.432126282004 0.322335834606
H 0.95760760609 0.450126282004 -2.182664165394
H -0.12139239391 -0.954873717996 -2.204664165394
H -0.79839239391 0.687126282004 -2.236664165394
Li 0.199481290301 0.092978913583 3.384230571448
