8
Coordinates from XML
C 0.049248124987 0.049211233209 -1.70203613866
C 0.007248124987 0.058211233209 -0.19103613866
O 1.002248124987 -0.599788766791 0.34496386134
O -0.960751875013 0.418211233209 0.44796386134
H 1.007248124987 0.436211233209 -2.05703613866
H -0.071751875013 -0.968788766791 -2.07903613866
H -0.748751875013 0.673211233209 -2.11103613866
Li -0.218057138171 0.210021759525 2.327542808709
