8
Coordinates from XML
C 0.370002247092 -0.040701389771 -0.890285812068
C 0.328002247092 -0.031701389771 0.620714187932
O 1.323002247092 -0.689701389771 1.156714187932
O -0.639997752908 0.328298610229 1.259714187932
H 1.328002247092 0.346298610229 -1.245285812068
H 0.249002247092 -1.058701389771 -1.267285812068
H -0.427997752908 0.583298610229 -1.299285812068
Li -2.915997752908 0.966298610229 -4.500285812068
