8
Coordinates from XML
C -0.669460454956 -1.16268642991 0.146672476484
C 0.05788038222 0.08835695608 -0.460046976804
O 1.348702246355 0.065600598649 -0.451044403276
O -0.727265265466 1.014876958448 -0.905089775867
H 0.054219566884 -1.912370320132 0.489233629296
H -1.30141151293 -0.841613388411 0.988120886876
H -1.333068498399 -1.601387119385 -0.613136651041
Li -5.9793637e-05 -0.000105593326 3.503527932428
