8
Coordinates from XML
C 1.270787521892 -0.627237315233 -0.854871929899
C -0.097329476667 0.051027815173 -0.493686336081
O -0.20093239216 0.543015380864 0.695445554908
O -0.979908125849 0.039345359813 -1.439135723469
H 1.974567733756 -0.56769139746 -0.015685091495
H 1.094184032876 -1.680239095659 -1.120360014549
H 1.699077569955 -0.133335996593 -1.739616504743
Li 0.000115303161 -5.6491915e-05 4.415066779369
