8
Coordinates from XML
C -0.497136763596 0.52709366373 -1.710237293234
C 0.040000727471 -0.046728569389 -0.352130485019
O 0.31593293002 -1.307714665125 -0.327728251122
O 0.14562791093 0.81849807593 0.603475001681
H -0.546494293074 -0.255329430451 -2.477351879629
H -1.496871658246 0.958094692183 -1.551323106025
H 0.161413085702 1.341505578252 -2.046673275277
Li -4.4840596e-05 4.6909521e-05 3.771485562004
