8
Coordinates from XML
C 1.183670746696 -0.781468272008 -0.079061433663
C -0.092311777134 0.064223217473 -0.423905232436
O -0.535611988027 0.844049269352 0.50462922298
O -0.564178201708 -0.118481097501 -1.614248589
H 1.537417788489 -0.565968722999 0.936571289069
H 0.945266896769 -1.851479818667 -0.1724657128
H 1.976413456139 -0.557241591184 -0.808050619296
Li 0.000107158077 -7.0285884e-05 3.396257733143
