8
Coordinates from XML
C 0.371218889624 -0.705163823998 0.628776851559
C -0.023736641183 0.058203883157 -0.684053150539
O 0.792240518583 0.974360406687 -1.086120908754
O -1.137690587866 -0.319394861454 -1.222088361845
H 1.330522384721 -0.345876144036 1.02086870305
H -0.417553495056 -0.56203243772 1.382326449419
H 0.43192363881 -1.783187560184 0.418245148041
Li 3.4353799e-05 -6.3373499e-05 4.951452482487
