8
Coordinates from XML
C -0.242260496167 -0.570135106623 -1.752259275057
C 0.013665291343 0.042441073599 -0.330466337685
O -0.950780584692 -0.056249910367 0.522132175652
O 1.176254271114 0.586285355168 -0.170540237913
H -1.237984389198 -1.026244433107 -1.812134677572
H -0.147851401072 0.221705996707 -2.510256672709
H 0.529406657068 -1.323984959911 -1.967628826887
Li -2.2689074e-05 -5.1899655e-05 3.664231973077
