8
Coordinates from XML
C 0.816676517895 0.534712098774 0.530760226859
C -0.066083380272 -0.036301613146 -0.634109313063
O -0.866320635245 0.795620795472 -1.212335414908
O 0.107673457028 -1.292927309488 -0.886411743989
H 0.62963777845 1.605224425555 0.679443517257
H 0.594235401361 -0.015609592259 1.457124869458
H 1.87871189906 0.36816976117 0.297332851686
Li 7.3586533e-05 4.9184965e-05 4.611817019107
