8
Coordinates from XML
C -0.06839560168 0.080700235738 -2.577658834342
C -0.10839560168 0.084700235738 -1.065658834342
O 0.88660439832 -0.575299764262 -0.532658834342
O -1.07539560168 0.442700235738 -0.424658834342
H 0.88960439832 0.468700235738 -2.932658834342
H -0.18939560168 -0.937299764262 -2.956658834342
H -0.86639560168 0.705700235738 -2.983658834342
Na 0.230914924636 -0.004473448472 2.956725376185
