8
Coordinates from XML
C 0.744966235047 -0.477596301013 -0.196284581856
C -0.055170468613 0.033761083838 -1.445499384228
O 0.346221985265 -0.385630939497 -2.598675178197
O -1.038509142555 0.829835533264 -1.176674870525
H 1.551684593248 -1.157804170312 -0.495633204317
H 1.164284229041 0.384732040761 0.343203801606
H 0.056603991026 -0.991303912677 0.4910332131
Na 5.4654352e-05 -3.5215803e-05 3.468784523541
