8
Coordinates from XML
C -1.407801314988 -0.252223200123 -1.742255895863
C 0.111886287313 0.017090674032 -1.458949752878
O 0.953772398414 -0.497467178934 -2.291582910365
O 0.354020687742 0.731876639022 -0.408517436044
H -1.539804560137 -0.849121180664 -2.652956064294
H -1.848682615481 -0.779229163148 -0.882969064348
H -1.934564281813 0.708211230551 -1.84340094862
Na -0.000102389649 -1.8693339e-05 3.785325581119
