8
Coordinates from XML
C 0.762519987658 0.05604147671 -2.516371320346
C -0.05475743996 -0.003017561681 -1.178158938719
O 0.620554621291 0.115914734301 -0.084253681412
O -1.32941087455 -0.168302555126 -1.322712003359
H 1.830266214816 0.212625889688 -2.32019240026
H 0.618339573634 -0.883331371651 -3.070696247603
H 0.372969401854 0.870694949233 -3.144649842457
Na 5.6136664e-05 4.234473e-06 3.281502634415
