8
Coordinates from XML
C -0.308562956022 1.389172587592 -1.587527551038
C 0.025355714986 -0.107415064461 -1.254411260644
O 0.48152456057 -0.34680235636 -0.070593837281
O -0.194774331874 -0.943923395298 -2.216051874791
H -0.113315632962 2.038493235398 -0.72535121649
H 0.299514593674 1.713837290691 -2.44503556215
H -1.364523519752 1.468443897155 -1.885532899761
Na -2.2338023e-05 0.000101382754 3.295963963507
