8
Coordinates from XML
C -1.424930442262 0.288771886701 -1.397667415293
C 0.112442331283 -0.020317504575 -1.341174535972
O 0.784056611219 0.194806594215 -2.422597609596
O 0.539678401208 -0.463489198051 -0.203622652969
H -1.714153378914 0.673935257549 -2.3831044368
H -1.987636882222 -0.630282957188 -1.175890226756
H -1.676907683904 1.023609379947 -0.618780280495
Na -0.000103730538 2.1300137e-05 3.439910052367
