8
Coordinates from XML
C 1.454644226732 -0.026940925132 -1.241189064188
C -0.114159787816 0.002115483105 -1.257077145548
O -0.704613106483 -0.108449766167 -0.114290994428
O -0.646822170266 0.133281919387 -2.428410679681
H 1.837274159154 -0.124464835462 -0.217875683833
H 1.807610796684 -0.8698109366 -1.853945303871
H 1.840037840593 0.895808710904 -1.699608863203
Na 0.000105964717 -1.970318e-06 3.238415801179
