8
Coordinates from XML
C 0.540852979522 -1.151196635174 -2.080378699334
C -0.038310171748 0.089471930071 -1.313857794546
O 0.444095575639 0.317751840034 -0.13827582775
O -0.947091098392 0.751727991124 -1.952990200885
H 1.314671630304 -1.654963007727 -1.488339012936
H -0.276261446315 -1.853728120516 -2.302322368308
H 0.959893115149 -0.821040355016 -3.042431731108
Na 3.9872532e-05 -8.3965777e-05 3.526221633335
