8
Coordinates from XML
C 0.648401766323 -1.135914093923 -0.814726300428
C -0.055058580665 0.085343066532 -1.504593845907
O -1.033696143293 -0.187407580322 -2.301271690908
O 0.431808898366 1.243059114721 -1.195385654724
H 0.176387313803 -2.081237314928 -1.109095485511
H 1.712401282092 -1.146575466377 -1.09450626859
H 0.597696556078 -1.015276272201 0.277527945691
Na 4.675501e-05 -8.318787e-05 3.727820049001
