8
Coordinates from XML
C 1.183963275358 -0.825403907186 -1.793806963051
C -0.094503446235 0.063645572779 -1.600528392059
O -0.809551851516 0.282082640712 -2.653054405286
O -0.290152998986 0.485021444832 -0.393416250281
H 1.279037217628 -1.159137402405 -2.834321139963
H 2.074253412147 -0.247603752657 -1.503951966945
H 1.125848535502 -1.696256946964 -1.124194014655
Na 8.6067303e-05 -6.0251911e-05 4.130762350249
