8
Coordinates from XML
C 0.030375546257 0.046925133387 -2.32229013999
C -0.009624453743 0.050925133387 -0.81029013999
O 0.985375546257 -0.609074866613 -0.27729013999
O -0.976624453743 0.408925133387 -0.16929013999
H 0.988375546257 0.434925133387 -2.67729013999
H -0.090624453743 -0.971074866613 -2.70129013999
H -0.767624453743 0.671925133387 -2.72829013999
Na -0.022624453743 0.082225133387 2.30120986001
