13
Coordinates from XML
H 0.255122797654 -0.97605189042 -2.576014066929
N 5.3508168e-05 1.2465414e-05 -2.751553324164
H 0.782272387224 0.481007363287 -3.20461003526
H -0.821175974472 0.033629493163 -3.362290765532
H -0.215980268624 0.461369576842 -1.86328128643
N -0.318148928116 -0.041379995502 0.939835865536
C 0.364290717294 0.047374178099 2.2451253074
H -1.296749273748 -0.338653051884 1.048038608004
H 0.144597902214 -0.719627847989 0.320380272602
H -0.32213531103 0.866547673341 0.456544486656
H 0.335052968261 -0.942111831277 2.705178696997
H -0.171436642265 0.778963823332 2.853018223306
H 1.392613436302 0.365625421713 2.063350414996
