13
Coordinates from XML
H -0.386537770692 0.650924538142 -3.748451051712
N 5.7010419e-05 3.3730531e-05 -3.058913792541
H 1.017599302589 -0.044286649014 -3.164394774724
H -0.231520980837 0.32468797364 -2.115770406624
H -0.399350262781 -0.931127377086 -3.207106274726
N -0.318154352188 -0.216036298105 2.291547110457
C 0.364296070544 0.247383584458 1.068074539061
H -1.323011594632 0.00148745455 2.265411323903
H 0.073427083474 0.230724904408 3.131159173956
H -0.224724081859 -1.233432467139 2.41026913799
H 0.229359195799 1.328440225028 0.999553668423
H -0.094210957833 -0.260211363361 0.217263347387
H 1.421115050515 -0.011545865823 1.156746763292
