13
Coordinates from XML
H 1.021359597611 -0.073115689713 -2.785067498136
N -1.8301805e-05 -4.4410524e-05 -2.789943433178
H -0.409428335927 -0.938315609407 -2.767284410558
H -0.308421348548 0.52688558529 -1.967884718565
H -0.30348337642 0.484360935868 -3.639536629288
N 0.07375419141 0.259677569497 0.937223611531
C -0.084456959238 -0.297334450035 2.294459236582
H 0.195759417505 1.280554159192 0.96298120106
H -0.748661199572 0.060982398773 0.352387597073
H 0.894686104156 -0.138232483463 0.462189418667
H -0.967408116928 0.161790575555 2.742999083208
H 0.81572885531 -0.054303094943 2.862228793469
H -0.209029329887 -1.377730470766 2.199592262031
