13
Coordinates from XML
H -0.324764844798 -0.950259043581 -2.52898632763
N 2.585133e-06 0.000123428309 -2.329298387131
H 0.954749444479 -0.035784694188 -1.960988882356
H -0.012890353907 0.553302682638 -3.190910059929
H -0.617115620811 0.433141957578 -1.636327779384
N -0.004710621017 -0.685196432182 1.249902047983
C 0.005394055989 0.784592853597 1.380282456455
H 0.35528777882 -0.982619280893 0.333562295938
H -0.956329371762 -1.063411598593 1.346105224261
H 0.579158046912 -1.129386378272 1.970812424108
H -0.62864687353 1.194141468797 0.591708705001
H 1.037489713826 1.122617356973 1.269471815313
H -0.385748920158 1.034889110236 2.368276654881
