13
Coordinates from XML
H 0.360989457607 -0.224577161367 -3.312036123915
N -9.6880777e-05 6.9864588e-05 -2.380517809569
H -0.952225211079 -0.364734606478 -2.286431729167
H 0.600728449936 -0.426614215961 -1.669534119616
H -0.009844957233 1.016183503973 -2.254160234164
N 0.549996496236 -0.39775167193 1.451339970553
C -0.629776427816 0.455450411913 1.211415499521
H 1.248136236808 -0.290745820053 0.703751587619
H 0.291027318714 -1.392282861776 1.492845241514
H 1.009629923536 -0.160319680494 2.340318182857
H -1.070402370124 0.155773739517 0.25871974484
H -0.290677958279 1.492595235484 1.17819121775
H -1.329218724254 0.297282164984 2.034541771496
