390
Coordinates from XML
H 0.509657172319 -0.835729511508 -3.090606770061
N 3.802944e-06 -1.1246006e-05 -2.789933485928
H -1.007197780082 -0.173975556061 -2.851286888253
H 0.249675848336 0.222211919196 -1.822034253261
H 0.247929742041 0.787366551239 -3.395835394763
N -0.038155966987 0.09161119542 0.889239662544
C 0.043688960838 -0.104887091657 2.349401136821
H 0.16499037123 1.065982921107 0.630262741856
H -0.976121925663 -0.134208094917 0.532721053664
H 0.634271026072 -0.507346830573 0.39223833246
H -0.689965288075 0.554618472152 2.816723706741
H 1.057437336683 0.149824539304 2.664357047267
H -0.180773944239 -1.152593560127 2.558449313498
H 0.803608375991 -0.110412119215 -3.45334686107
N -0.000106639091 -1.7532677e-05 -2.828501912467
H 0.254380627377 0.615190916767 -2.050531704207
H -0.781652275649 0.410889850834 -3.347047696514
H -0.276684796287 -0.915749559813 -2.46314240809
N 0.592545885398 0.105104091216 1.924799878135
C -0.678499826271 -0.120338535687 1.209957153597
H 0.823676287368 1.106162001688 1.971699101656
H 1.374995698248 -0.371566328604 1.457426781733
H 0.547378829631 -0.24764127763 2.889916317654
H -0.566868942523 0.273442335548 0.197997815856
H -1.464941856876 0.407994583177 1.752298428081
H -0.866669154628 -1.195569527085 1.194330285599
H -1.009466951049 -0.169617422021 -2.673175309966
N 1.2155429e-05 2.0040934e-05 -2.700580870475
H 0.473182601403 -0.653672486192 -2.070280419075
H 0.343397061303 -0.137431544029 -3.65543272192
H 0.192837328113 0.960785049821 -2.403432354615
N -0.038513830051 -0.110785108134 2.197367250807
C 0.044103883442 0.126842643086 0.743376513125
H 0.49505738554 -0.946191745279 2.4714753472
H -1.011511977045 -0.252227742852 2.499275510104
H 0.337890864364 0.685112062115 2.729143802013
H -0.36841720649 -0.748385382544 0.238016459783
H 1.095827853005 0.268618502913 0.487373959591
H -0.538978590457 1.021725728181 0.517605229204
H -0.145439878345 -0.363090440016 -2.035603420999
N -6.9293044e-05 4.932563e-05 -2.981950557908
H -0.624881129527 0.795320129683 -3.142067287863
H 0.972364372993 0.303745285638 -3.085341655362
H -0.202334733643 -0.735813135654 -3.664697450697
N 0.406148207099 -0.274360506643 1.195289771824
C -0.465057990466 0.314152273683 2.230680600795
H 0.817478375596 -1.162203826311 1.51195911389
H 1.181304512094 0.357301368142 0.954424687661
H -0.116592742274 -0.466463850657 0.330560157975
H 0.145039667361 0.493650438276 3.117894096421
H -1.263273792832 -0.400238093749 2.44105870273
H -0.868501499259 1.248610452717 1.835972066748
H -0.331627937299 -0.078458542531 -1.901101702482
N -2.1825731e-05 -5.1850994e-05 -2.866744378368
H 0.559251804537 0.851742789153 -2.967450621982
H 0.57511848627 -0.815269306831 -3.097357281761
H -0.802862039842 0.041769999327 -3.500973606205
N 0.136948427322 0.302947635943 1.010928290589
C -0.156827339158 -0.34689470304 2.302741912399
H -0.711618364632 0.706660353156 0.592971137816
H 0.526490319866 -0.366839701031 0.334524530116
H 0.819914300327 1.064094208282 1.121076425968
H -0.883331613843 -1.140768049345 2.119593942467
H -0.565051425944 0.411884329308 2.973091436929
H 0.778526567329 -0.752940409875 2.692631042256
H -0.561678620594 -0.287611654217 -3.762818816393
N 3.8347257e-05 -8.7554019e-05 -2.956357447304
H 0.507461102075 0.859924047954 -3.183040138229
H -0.614562004645 0.167449802488 -2.154643139325
H 0.668878057019 -0.740140490825 -2.72500645126
N -0.204449441268 0.51644838566 1.257744255217
C 0.23411171527 -0.591371556261 2.128250308188
H -0.328200168175 0.203070286672 0.286035623648
H 0.482314365485 1.282077752181 1.250877170278
H -1.101589394268 0.908311969693 1.573183530259
H 1.185935231043 -0.961939861299 1.743155961149
H -0.532684331405 -1.367600049632 2.092836202474
H 0.34675701574 -0.196680253675 3.139834902745
H 0.255122797654 -0.97605189042 -2.576014066929
N 5.3508168e-05 1.2465414e-05 -2.751553324164
H 0.782272387224 0.481007363287 -3.20461003526
H -0.821175974472 0.033629493163 -3.362290765532
H -0.215980268624 0.461369576842 -1.86328128643
N -0.318148928116 -0.041379995502 0.939835865536
C 0.364290717294 0.047374178099 2.2451253074
H -1.296749273748 -0.338653051884 1.048038608004
H 0.144597902214 -0.719627847989 0.320380272602
H -0.32213531103 0.866547673341 0.456544486656
H 0.335052968261 -0.942111831277 2.705178696997
H -0.171436642265 0.778963823332 2.853018223306
H 1.392613436302 0.365625421713 2.063350414996
H -0.053577708619 0.193611706005 -2.067434934507
N -1.3230903e-05 -6.5881757e-05 -3.071524491631
H 0.142889411843 0.876540568819 -3.581056448927
H 0.783216796033 -0.633471749676 -3.255632941711
H -0.872586653776 -0.436925138349 -3.38187558576
N 0.078366556703 0.375638687178 1.157448335377
C -0.089733231533 -0.430140555422 2.382129507516
H -0.148817089589 -0.169960103934 0.315755226225
H 1.046274410233 0.709070896126 1.05816410143
H -0.534242554072 1.201813993524 1.165419569876
H 0.58326901914 -1.286820878023 2.313185142569
H -1.131724109077 -0.75226888348 2.429556940271
H 0.165068139654 0.201679382674 3.235155537052
H 0.860854681765 0.169082769255 -3.343660652671
N -0.000106864339 1.9153531e-05 -2.815703542699
H -0.186468337713 0.798242677265 -2.202033063207
H -0.781542593138 -0.119973519241 -3.466478580817
H 0.106812870007 -0.847258803034 -2.250693432413
N 0.592041359696 -0.116351299427 1.914745695417
C -0.677921730151 0.133217852964 1.206021003736
H 1.200865151434 -0.750356257673 1.380789663956
H 0.429451705715 -0.545673894364 2.835140569313
H 1.113340668113 0.756898479128 2.068371719577
H -1.181006294169 -0.826543052196 1.074296076807
H -0.438962945246 0.586781904587 0.24220600064
H -1.275992219082 0.808957125908 1.82040012551
H -0.980047455636 -0.262928326902 -3.029738283216
N 6.7982602e-05 -8.7205004e-05 -2.89239101398
H 0.602205370532 -0.642803565941 -3.414721460575
H 0.147554210735 0.955610990795 -3.229195053534
H 0.23046409038 -0.050253586043 -1.895922671415
N -0.362970124751 0.513645360692 1.348933787589
C 0.415611389992 -0.588161928094 1.946606961889
H -1.333963015613 0.513272111889 1.687918162715
H -0.393133402842 0.438030393607 0.323627704798
H 0.04508839391 1.429121295907 1.57982587795
H -0.065447892093 -1.527186016118 1.666602927576
H 0.410002151787 -0.451859598386 3.029728017618
H 1.430953405213 -0.533417280821 1.549294495786
H -0.897934935038 0.490868797452 -3.067153614474
N 6.5219406e-05 -7.4489239e-05 -3.033294909965
H -0.154395676033 -1.003613258719 -3.165713261907
H 0.609973084302 0.352395637518 -3.776480886745
H 0.442530709066 0.160098810473 -2.123835183248
N -0.349549858621 0.416135594521 2.128509332758
C 0.400248379142 -0.476496296 1.223858786595
H -1.26615442489 0.665319296324 1.734198171553
H 0.162050915959 1.291821354298 2.299737565166
H -0.515714938907 -0.028642911022 3.040912942516
H 0.543656228473 0.050076687001 0.27847970267
H -0.191806588828 -1.382740932777 1.08260517349
H 1.357968735039 -0.702922445316 1.696380213417
H 0.553741699373 0.742407551725 -3.470051687761
N 3.6987015e-05 -5.5706047e-05 -3.033319043721
H 0.142303471899 -0.876678033819 -3.543001681968
H 0.29593600459 -0.119077486731 -2.060269313686
H -0.991779155076 0.253197650814 -3.05999614114
N -0.231829557036 0.299334287649 2.281116922927
C 0.265471728426 -0.342753152688 1.049127941466
H 0.457361301944 0.959777949933 2.663958755602
H -0.432605232799 -0.396417526036 3.011526774843
H -1.099234516874 0.823774087588 2.106501253846
H 1.182079890789 -0.88019165608 1.299279618979
H 0.45884545125 0.443818261745 0.31723107488
H -0.506968148451 -1.027789169756 0.694394419046
H -0.669272084582 0.154916162068 -3.191154683256
N -7.901658e-05 8.4339628e-05 -2.431691883312
H -0.479512876586 -0.433169454495 -1.637388934961
H 0.748477880084 -0.6182122998 -2.757145456235
H 0.399925663877 0.896818071034 -2.141152625085
N 0.479062775124 -0.493622319915 1.361419219955
C -0.548546342622 0.565237068321 1.376183943783
H 1.396442137096 -0.129595302502 1.650620148066
H 0.588393587512 -0.89664276799 0.421471720413
H 0.235196502144 -1.261442667858 2.000872309859
H -0.233365060131 1.346140766233 0.68160730744
H -0.616578970623 0.950412922516 2.395385657318
H -1.493427565984 0.117983201275 1.06164136773
H -0.386537770692 0.650924538142 -3.748451051712
N 5.7010419e-05 3.3730531e-05 -3.058913792541
H 1.017599302589 -0.044286649014 -3.164394774724
H -0.231520980837 0.32468797364 -2.115770406624
H -0.399350262781 -0.931127377086 -3.207106274726
N -0.318154352188 -0.216036298105 2.291547110457
C 0.364296070544 0.247383584458 1.068074539061
H -1.323011594632 0.00148745455 2.265411323903
H 0.073427083474 0.230724904408 3.131159173956
H -0.224724081859 -1.233432467139 2.41026913799
H 0.229359195799 1.328440225028 0.999553668423
H -0.094210957833 -0.260211363361 0.217263347387
H 1.421115050515 -0.011545865823 1.156746763292
H -0.75070533519 -0.672536807745 -2.49402992325
N -7.064863e-06 4.464142e-05 -2.67475706888
H -0.118717438353 0.401016475739 -3.609429356534
H -0.035735592663 0.747400409882 -1.975664072457
H 0.905056796375 -0.47576719398 -2.619887274144
N 0.064663359872 -0.237425935292 0.862747590413
C -0.07405678158 0.271864404854 2.24070323984
H -0.835130455459 -0.221316552013 0.364902918188
H 0.405590645583 -1.207775931083 0.854412032379
H 0.729336810292 0.328765721088 0.319097599562
H -0.788350954425 -0.367572939825 2.762709223398
H -0.437164670441 1.299704581165 2.181896411951
H 0.909244395545 0.229298187112 2.713017216102
H 0.599595310483 0.828046848298 -2.708189818083
N -8.4337986e-05 -7.6971649e-05 -2.764503742192
H -0.837953990006 0.221708514946 -3.309727085566
H 0.511477779531 -0.761616300472 -3.219377615456
H -0.273397889486 -0.288366077902 -1.820714950257
N 0.469774518713 0.419849557288 1.831677829033
C -0.537911556264 -0.480756935256 1.239344797804
H 1.191804108921 0.677017369074 1.145911303571
H 0.944527175348 -0.022285062108 2.629804951332
H 0.040683668522 1.290970413034 2.170718530081
H -0.022723336618 -1.381587816232 0.90071321006
H -1.003441352632 0.043345699809 0.402469988402
H -1.27179061508 -0.715410459599 2.012735275212
H -0.890911582418 -0.320102513639 -2.297192439345
N 4.241254e-06 2.052391e-06 -2.687548766225
H 0.574248690181 0.403076220616 -1.941722125653
H 0.493292286298 -0.793071625764 -3.107369246471
H -0.176699432542 0.710074868141 -3.403873132696
N 0.003599363268 -0.001756268121 0.824442600762
C -0.004117584377 0.002024042679 2.300012950819
H 0.601777086936 0.746830612397 0.450893630445
H -0.941739393589 0.138862939187 0.444388810727
H 0.356558224357 -0.8939331104 0.453822007054
H -0.38675182289 0.969827935528 2.629456716131
H 1.022041644666 -0.15074545367 2.639747740965
H -0.652858072703 -0.810546114031 2.632637512797
H -0.030166077098 0.442708610528 -2.033455822016
N -3.1772087e-05 7.776318e-06 -2.95632303622
H -0.392806721707 0.638292489854 -3.65403595241
H 0.970861465656 -0.216107993316 -3.199650973416
H -0.548018698004 -0.86481876929 -2.938059273285
N 0.185073298583 -0.059075943376 1.003667048129
C -0.211915473259 0.067633057531 2.419197494329
H 0.276156240028 -1.045387763602 0.726844666337
H 1.089645882041 0.397018450977 0.825885286702
H -0.508111746286 0.374724433272 0.379783383661
H 0.559772155637 -0.409230574187 3.026392529019
H -1.173910770907 -0.433511518222 2.542405332945
H -0.291212277085 1.131731207403 2.649806957147
H 0.212440452897 -0.967037190784 -3.217556059719
N 2.34542e-06 7.6556879e-05 -2.956525315221
H 0.837769244117 0.577073706272 -3.073588388127
H -0.748226332438 0.359009427806 -3.556416330155
H -0.301953236989 0.031165839519 -1.978565974165
N -0.020311101106 -0.413042748413 2.213290477362
C 0.023255674969 0.472969905 1.034110586924
H -0.499791437997 0.038031692934 3.003460202737
H 0.925969234206 -0.664475079301 2.528275111888
H -0.520238144774 -1.287812649957 2.006482183619
H 0.563580403829 1.378429638085 1.31656127137
H -1.005690309637 0.702170064091 0.750388085465
H 0.541415754011 -0.060230166041 0.234747467478
H -0.140346267933 -0.313877162824 -3.626705670091
N 6.849497e-05 -4.2948287e-05 -2.662149927718
H 1.001208454702 0.005219228673 -2.447268703499
H -0.377557702168 0.945428659334 -2.552468186223
H -0.483044217099 -0.636973166204 -2.022251345956
N -0.392490179276 0.258806724179 2.000108788304
C 0.449415388172 -0.296346761358 0.922898816665
H -1.387014587337 0.255058594676 1.738107083546
H -0.132916170597 1.230442984228 2.215571829625
H -0.298879747606 -0.286089932769 2.867428694872
H 0.30642408752 0.322244118714 0.034931845979
H 0.126296796427 -1.323324319134 0.742143508327
H 1.487161653788 -0.264933425134 1.260344324128
H -0.519143736076 -0.430970460409 -2.083684532218
N -1.9928376e-05 5.6506261e-05 -2.853945673833
H 0.36708364442 -0.731254965939 -3.46949530422
H -0.624854399304 0.612312726297 -3.38617907655
H 0.77678408177 0.550096632616 -2.47634856153
N 0.131912937493 -0.313813078176 1.008182967454
C -0.151035157228 0.359338018661 2.290442565398
H 1.117711321629 -0.600011262539 0.944701591418
H -0.062915343532 0.304246307317 0.209481178977
H -0.44359608955 -1.158520496149 0.893388203572
H 0.487287023049 1.242720830547 2.351811383464
H 0.074305245522 -0.344459031003 3.093967565489
H -1.206879672153 0.63670720059 2.29612386983
H -0.112058262889 -0.805536953423 -3.335557664517
N 3.0137641e-05 5.932487e-06 -2.71337372915
H -0.62437323478 -0.101180157033 -1.908162791695
H 0.970108781818 0.048421138733 -2.389102882611
H -0.233567679718 0.858241035372 -3.220732337928
N -0.171093886479 -0.008919605529 2.192965165052
C 0.195917594718 0.010200780729 0.763868008279
H 0.363540015475 -0.720935265608 2.707686478663
H -1.169711525238 -0.219503792986 2.320625345034
H 0.013182119698 0.899197395695 2.63937861202
H -0.02215270647 -0.976029887085 0.349886192733
H 1.26143742502 0.237761048655 0.6957150502
H -0.402342524857 0.781956184529 0.275757358906
H 1.021359597611 -0.073115689713 -2.785067498136
N -1.8301805e-05 -4.4410524e-05 -2.789943433178
H -0.409428335927 -0.938315609407 -2.767284410558
H -0.308421348548 0.52688558529 -1.967884718565
H -0.30348337642 0.484360935868 -3.639536629288
N 0.07375419141 0.259677569497 0.937223611531
C -0.084456959238 -0.297334450035 2.294459236582
H 0.195759417505 1.280554159192 0.96298120106
H -0.748661199572 0.060982398773 0.352387597073
H 0.894686104156 -0.138232483463 0.462189418667
H -0.967408116928 0.161790575555 2.742999083208
H 0.81572885531 -0.054303094943 2.862228793469
H -0.209029329887 -1.377730470766 2.199592262031
H 0.974780016585 -0.295952297878 -2.711447825072
N 4.4502692e-05 6.5671843e-05 -2.815563335727
H -0.070045212467 1.00812347513 -2.65006485519
H -0.322029149797 -0.213359895211 -3.763859850379
H -0.582432454538 -0.498577502676 -2.136870644738
N -0.288701907819 -0.371211235286 1.082289891489
C 0.330588558913 0.425048665435 2.159244481208
H -0.228989197473 -1.378827099636 1.279476103312
H 0.174607262805 -0.204634786321 0.179252290353
H -1.283576337205 -0.136732706045 0.967556334587
H 1.379537840617 0.131461022646 2.230646374835
H -0.202637797271 0.205088438472 3.086092991821
H 0.235230787256 1.479256168825 1.892173301217
H 1.009134324781 -0.13871034937 -2.612247403114
N -9.4583026e-05 7.4474668e-05 -2.508460196461
H -0.487368792924 -0.435742124664 -3.296565891222
H -0.315274341603 -0.428110162284 -1.633321449483
H -0.206770964845 1.002846981783 -2.491716177493
N 0.516174353027 -0.427193988658 1.255689198279
C -0.591058142242 0.489152733592 1.589944469059
H 0.189770589621 -1.400081516784 1.187218906538
H 1.255237238992 -0.398335787051 1.970415205074
H 0.947183850688 -0.181227531269 0.354772767767
H -1.004129153423 0.177179772716 2.551002085128
H -1.338488543147 0.41271624637 0.79794303647
H -0.182259256962 1.499754805166 1.647741565216
H -1.002599909201 -0.12504102694 -2.610583943377
N -4.41796e-07 -2.1700437e-05 -2.777138666996
H 0.199188784166 0.992441793283 -2.931484758275
H 0.525140512122 -0.330928752214 -1.962721273025
H 0.278170935625 -0.536571024797 -3.603748428197
N 0.034278720369 0.129699255502 0.888049885667
C -0.039238454548 -0.148518174014 2.335313506058
H 0.769004133492 -0.430016715008 0.435684613274
H 0.244228282196 1.120172357545 0.70704097534
H -0.85447022792 -0.089001056851 0.418779622077
H 0.928656378465 0.102529528423 2.77319610828
H -0.263431548685 -1.209572723813 2.460460255488
H -0.83295619323 0.472582702813 2.754860204418
H -0.946654361849 0.355219128806 -2.811135977776
N -2.1838759e-05 -0.000117370305 -2.649275424745
H -0.013193184689 -1.023924310506 -2.660620681087
H 0.623398959605 0.341415454722 -3.386330393927
H 0.336268787316 0.32685494659 -1.739030452883
N 0.156496695723 0.668906051091 1.526576765165
C -0.179189716924 -0.765940720908 1.449693260769
H 1.064948471413 0.81718496794 1.985343017263
H -0.549554363676 1.19076695818 2.062331471327
H 0.209744252585 1.091990386565 0.590583473114
H -0.220485709028 -1.154300579558 2.469035102953
H 0.603470467593 -1.261554699452 0.872137350192
H -1.148478528768 -0.856111493658 0.955606212796
H -0.324764844798 -0.950259043581 -2.52898632763
N 2.585133e-06 0.000123428309 -2.329298387131
H 0.954749444479 -0.035784694188 -1.960988882356
H -0.012890353907 0.553302682638 -3.190910059929
H -0.617115620811 0.433141957578 -1.636327779384
N -0.004710621017 -0.685196432182 1.249902047983
C 0.005394055989 0.784592853597 1.380282456455
H 0.35528777882 -0.982619280893 0.333562295938
H -0.956329371762 -1.063411598593 1.346105224261
H 0.579158046912 -1.129386378272 1.970812424108
H -0.62864687353 1.194141468797 0.591708705001
H 1.037489713826 1.122617356973 1.269471815313
H -0.385748920158 1.034889110236 2.368276654881
H -0.392323312375 0.938007438937 -2.808760107906
N -1.7626108e-05 -9.0401294e-05 -2.687744858135
H -0.527030146539 -0.499932166914 -1.966011623033
H -0.061850756205 -0.512583408077 -3.572095338443
H 0.981095399585 0.074238141995 -2.404124181054
N 0.114531216535 0.494200744393 1.976941743409
C -0.131158609191 -0.565888495569 0.98033298725
H -0.692810303774 0.614801098371 2.602555813107
H 0.293105812563 1.400220090056 1.52403991195
H 0.930594540477 0.275277037457 2.56348429247
H -1.004450869526 -0.276114173682 0.392984708617
H -0.312831746914 -1.496802398307 1.520846804574
H 0.757092536897 -0.644516467043 0.350570235433
H 0.360989457607 -0.224577161367 -3.312036123915
N -9.6880777e-05 6.9864588e-05 -2.380517809569
H -0.952225211079 -0.364734606478 -2.286431729167
H 0.600728449936 -0.426614215961 -1.669534119616
H -0.009844957233 1.016183503973 -2.254160234164
N 0.549996496236 -0.39775167193 1.451339970553
C -0.629776427816 0.455450411913 1.211415499521
H 1.248136236808 -0.290745820053 0.703751587619
H 0.291027318714 -1.392282861776 1.492845241514
H 1.009629923536 -0.160319680494 2.340318182857
H -1.070402370124 0.155773739517 0.25871974484
H -0.290677958279 1.492595235484 1.17819121775
H -1.329218724254 0.297282164984 2.034541771496
