12
Coordinates from XML
N -0.919337016367 0.551121454753 -2.691018622093
C 0.452274850616 0.003292759947 -2.400220929534
H -0.956738034113 0.957890860847 -3.640844262954
H -1.16905416852 1.290698475463 -2.013238514862
H -1.631643905724 -0.195758253536 -2.631624928642
H 1.155263958524 0.834498503941 -2.511906265252
H 0.662539968259 -0.746086254384 -3.169493053871
C 0.616475567301 -0.627938769129 -1.005964153742
H 0.419650894133 0.107452843316 -0.222025924238
H 1.636123648812 -0.999470266564 -0.877341333515
H -0.071449473659 -1.467134892568 -0.877045190336
Cl 9.9993249e-05 -5.8002414e-05 2.705980456371
