12
Coordinates from XML
N 1.189794742559 0.164901516061 -2.129526381553
C 0.001563501966 -0.031765391902 -1.226516228403
H 2.060379077199 0.240660464645 -1.576921249575
H 1.08585683516 1.02870413395 -2.687881687907
H 1.289622251916 -0.631325790804 -2.781289036419
H -0.024552361584 0.825361286947 -0.546647044679
H 0.192625952954 -0.939938664642 -0.646622811814
C -1.350480310162 -0.157021457416 -1.951537278881
H -1.564996580954 0.744878208228 -2.53003506278
H -2.156135895087 -0.297335020572 -1.226628404557
H -1.348556414732 -1.01374128123 -2.629872400196
Cl -0.000125266679 -1.7583127e-05 2.364873225139
