12
Coordinates from XML
N 0.669271274081 -0.935541981535 -1.33997770385
C -0.305070664236 -0.228903422448 -2.244034352821
H 0.730428564962 -1.939017519515 -1.581484565753
H 0.373608963999 -0.85881432274 -0.352346515515
H 1.613770743158 -0.524467435599 -1.427593254395
H -1.26931536949 -0.732644831739 -2.125514186371
H 0.050102764997 -0.377251470072 -3.268438872546
C -0.471580123482 1.276271538666 -1.968190172318
H -0.834984149643 1.446081551119 -0.951724729354
H -1.192353079545 1.710509992292 -2.665459850993
H 0.479619859518 1.800157474772 -2.090145955258
Cl -7.2625959e-05 9.6889681e-05 2.398888550954
