12
Coordinates from XML
N 0.308042937682 -1.073764986877 -1.103235884067
C 0.009814145222 -0.105592956818 -2.216654582518
H 0.546711803015 -2.005367010752 -1.482951271869
H -0.510762793594 -1.179070486956 -0.480992663547
H 1.105689673802 -0.743031258185 -0.534805678005
H -0.817385150401 -0.531173143362 -2.793016551285
H 0.901782065932 -0.067798139874 -2.849524796967
C -0.358537261933 1.316871805901 -1.758093446822
H -1.253595536632 1.302397507452 -1.131386894378
H -0.558292881532 1.952931005843 -2.623996490013
H 0.459105890262 1.763991627088 -1.187431869466
Cl -3.2369504e-05 0.000112313713 2.182861432245
