12
Coordinates from XML
N -1.087403831418 -0.516744356751 -1.315578935013
C 0.390248175086 -0.410869840678 -1.582662863805
H -1.334325060621 -1.469474118827 -0.998774830046
H -1.629461240566 -0.310691287586 -2.171402863912
H -1.375271780202 0.152032288455 -0.581679856808
H 0.629642260197 -1.163449573181 -2.340214516921
H 0.899179734845 -0.671200497113 -0.649508779582
C 0.865425317635 0.972781655016 -2.0612882885
H 0.375265942119 1.248073372054 -2.998335875565
H 1.945017940061 0.963575385595 -2.230571210868
H 0.643564497322 1.738586605375 -1.31400544438
Cl 0.000117249975 5.15085e-05 2.160151168446
