12
Coordinates from XML
N 0.406517506312 -0.540497341002 -3.015254624324
C 0.142091322133 -0.354279729176 -1.5450844013
H 0.902196345157 -1.431354858656 -3.187603995834
H 0.99020127681 0.229751418182 -3.382336092711
H -0.479800650758 -0.556295924882 -3.547164901811
H 1.114118546029 -0.379669597521 -1.043000026429
H -0.449148600912 -1.215512826443 -1.219089257671
C -0.594686511132 0.946449742311 -1.178167051049
H -0.015754217246 1.820161194691 -1.487303946899
H -0.746533502802 1.002457717205 -0.097395432496
H -1.573152196112 0.987567401657 -1.662961168284
Cl -4.1796985e-05 5.4412015e-05 2.592335166496
