12
Coordinates from XML
N 0.190593548624 1.021873926304 -2.708073679716
C -0.552653992157 -0.12505268123 -2.0770894164
H -0.444557417469 1.592560563833 -3.291107937644
H 0.956231198912 0.674746274331 -3.309754725701
H 0.601140606835 1.634463256961 -1.983557676402
H -0.985460601242 -0.709726150438 -2.894650216852
H -1.362521995056 0.311429699465 -1.484504504912
C 0.304322401725 -1.040875494118 -1.184773826923
H 1.114651741963 -1.494824438225 -1.760444427001
H -0.309218690404 -1.843250329039 -0.767612411934
H 0.739234964882 -0.477402083936 -0.355641827104
Cl -2.3968054e-05 -0.000108481307 2.66051034238
