6
Coordinates from XML
H 0.511075500766 -0.764851224719 -3.337271953292
N -2.788875e-06 4.173697e-06 -3.787128820943
H -0.700893404487 -0.386877494297 -4.425531334971
H -0.465246282542 0.566554578128 -3.072204125021
H 0.655102940753 0.585116142765 -4.313463939153
K -1.26e-10 1.89e-10 1.752873633745
