6
Coordinates from XML
H 0.940437742895 -0.3867730199 -2.660184602434
N 9.2666635e-05 -2.8986804e-05 -2.542941810346
H -0.476391016268 0.019400956998 -3.448976804471
H -0.530484144214 -0.584260733484 -1.890996373521
H 0.066207915895 0.951704586201 -2.171857832699
K -2.7367011e-05 8.560602e-06 1.177008515306
