6
Coordinates from XML
H 0.940437742895 -0.3867730199 -3.890658873022
N 9.2666635e-05 -2.8986804e-05 -3.773416080934
H -0.476391016268 0.019400956998 -4.679451075059
H -0.530484144214 -0.584260733484 -3.121470644109
H 0.066207915895 0.951704586201 -3.402332103287
K -2.7367011e-05 8.560602e-06 1.746534244718
