6
Coordinates from XML
H 0.891601356052 0.284747012011 -2.730154769798
N 9.6507135e-05 3.9004765e-05 -3.144553293982
H -0.61905421448 -0.356034084753 -2.41094715155
H -0.437901263745 0.805894707135 -3.59911448711
H 0.165115108953 -0.734704235068 -3.837945370091
K -2.8501217e-05 -1.1519182e-05 1.455456985494
