6
Coordinates from XML
H 0.891601356052 0.284747012011 -2.989921560256
N 9.6507135e-05 3.9004765e-05 -3.404320084439
H -0.61905421448 -0.356034084753 -2.670713942008
H -0.437901263745 0.805894707135 -3.858881277567
H 0.165115108953 -0.734704235068 -4.097712160548
K -2.8501217e-05 -1.1519182e-05 1.575690195036
