6
Coordinates from XML
H 0.891601356052 0.284747012011 -3.427423523132
N 9.6507135e-05 3.9004765e-05 -3.841822047315
H -0.61905421448 -0.356034084753 -3.108215904884
H -0.437901263745 0.805894707135 -4.296383240443
H 0.165115108953 -0.734704235068 -4.535214123424
K -2.8501217e-05 -1.1519182e-05 1.77818823216
