6
Coordinates from XML
H -0.964628984884 0.342186848774 -2.391265232412
N -8.7800298e-05 2.85539e-05 -2.378868201907
H 0.348379306807 -0.073437358549 -3.338809381533
H 0.586853172902 0.652498623988 -1.851938946452
H 0.029613954714 -0.921318831882 -1.933774796994
K 2.5929848e-05 -8.432754e-06 1.10106868814
