6
Coordinates from XML
H -0.964628984884 0.342186848774 -2.62368815019
N -8.7800298e-05 2.85539e-05 -2.611291119685
H 0.348379306807 -0.073437358549 -3.571232299311
H 0.586853172902 0.652498623988 -2.08436186423
H 0.029613954714 -0.921318831882 -2.166197714771
K 2.5929848e-05 -8.432754e-06 1.208645770363
