6
Coordinates from XML
H -0.964628984884 0.342186848774 -2.705719768229
N -8.7800298e-05 2.85539e-05 -2.693322737724
H 0.348379306807 -0.073437358549 -3.65326391735
H 0.586853172902 0.652498623988 -2.166393482269
H 0.029613954714 -0.921318831882 -2.248229332811
K 2.5929848e-05 -8.432754e-06 1.246614152323
