15
Coordinates from XML
N 0.269898227785 1.16288956839 -1.932942244187
C 0.376291126282 -0.127439312967 -2.70088144724
H 0.993940264197 1.833113976591 -2.242120681439
H 0.395000205689 0.997179641774 -0.920218977571
H -0.65620011401 1.599084595703 -2.07721203857
H 1.385290612349 -0.515125964774 -2.530032431944
H 0.267144099636 0.125566055067 -3.759954220197
C -0.660261022288 -1.198477404784 -2.316428427128
H -0.561971179279 -1.472454767205 -1.263159499009
H -0.514122563183 -2.098738177884 -2.918454825875
H -1.676025300772 -0.834050914109 -2.488263691694
O 0.379596295862 0.921713917644 1.754269327448
O -0.668061006797 -0.860483833092 2.745791991565
C 0.282258432584 -0.060257518922 2.537329502749
H 1.215405859664 -0.25899614486 3.165855634183
