15
Coordinates from XML
N 0.179445034964 0.765243352461 -1.17667404253
C 0.51955744608 -0.160133470962 -2.314215238697
H 1.038306142225 1.099519486246 -0.708009985111
H -0.404299066464 0.28161759114 -0.473774585684
H -0.342796623934 1.589130133458 -1.519036768174
H 1.095454163916 -0.987295183629 -1.887932749749
H 1.160471821367 0.403658773201 -2.998997683765
C -0.692729919099 -0.716906421797 -3.082154234285
H -1.341797902275 -1.292025534507 -2.417286816892
H -0.35930719678 -1.375792173733 -3.88773511026
H -1.277210230766 0.093796117211 -3.524031200441
O -0.860921301978 0.165389728933 2.95487496316
O 1.002137069089 0.100594353591 1.620054036845
C -0.138246891279 -0.260541993152 2.015061330443
H -0.59527295908 -1.121536168874 1.419139806479
