15
Coordinates from XML
N 0.25694233735 -0.953697654935 -3.132805444263
C 0.492652032409 0.134482421083 -2.11973893494
H 1.134664450789 -1.461430887877 -3.33489401308
H -0.09804955413 -0.557528760421 -4.019230660175
H -0.436832590065 -1.635428671945 -2.78258096677
H 1.255693258624 0.797407735957 -2.539105603734
H 0.895073845975 -0.349413115938 -1.224494989796
C -0.755274541862 0.954712861229 -1.746552164291
H -1.167945687299 1.454392385131 -2.626394662933
H -0.498140767564 1.719054932834 -1.009039375731
H -1.527374456794 0.311780015704 -1.31688930552
O -0.035646179409 0.176535725721 3.57408416744
O 0.289372657147 -0.401950396462 1.379397765622
C -0.248390985846 0.220885351868 2.33323826323
H -1.069408516007 0.950764364823 2.019370294785
