15
Coordinates from XML
N -0.231359499238 1.164677386638 -2.050759621203
C -0.477548067035 -0.177926448864 -2.685428684952
H -1.069242229955 1.765354362116 -2.129300276899
H 0.556923518714 1.648505553628 -2.512537584985
H -0.00306023823 1.058898537299 -1.048049146262
H -0.743715311382 0.00990843975 -3.730150342407
H -1.338911992806 -0.616493233522 -2.172328995928
C 0.711978956464 -1.152859275279 -2.622990556808
H 1.581180181044 -0.737181683025 -3.138549761737
H 0.450388402896 -2.099013211578 -3.103224671289
H 0.988393349065 -1.361073903329 -1.586480621049
O -0.478640791335 -0.645775049438 3.325119986717
O 0.627858825503 0.335487807611 1.573060158025
C -0.145985822889 0.303364429185 2.566568260012
H -0.628664501388 1.306472622106 2.82367039267
