15
Coordinates from XML
N 0.774791414512 -0.055333134498 -1.742420401834
C -0.164918829297 0.543931450203 -2.754262931927
H 1.109136100142 0.666234149226 -1.08167595793
H 1.597913849846 -0.47157710144 -2.209249188258
H 0.302269703436 -0.796720812853 -1.198540307471
H 0.386846052395 1.33744250639 -3.267552331721
H -0.990575262174 0.991156416636 -2.19226541205
C -0.723103584956 -0.449388091723 -3.789208892679
H 0.085973193456 -0.901039422258 -4.368437487933
H -1.393644198198 0.064496959373 -4.482432618364
H -1.28613812721 -1.246229737713 -3.297124966762
O -0.348778837161 -0.47317869219 1.782209579526
O 0.289668705822 0.144171728763 3.896020127471
C 0.057636989004 0.322036418534 2.670682935298
H 0.248373069836 1.386490220676 2.302085444023
