15
Coordinates from XML
N 0.734807722895 1.004305166333 -2.41273637101
C 0.223047940304 -0.324005832541 -2.90231834136
H 1.583509549543 1.283450481648 -2.93313240893
H 0.973516838383 0.956520647356 -1.408020840459
H 0.020944352959 1.741017556002 -2.540767453448
H 1.035125784573 -1.045113146204 -2.767766842191
H 0.022191072465 -0.210129462987 -3.972013914502
C -1.043110221899 -0.833625461439 -2.190631319116
H -0.860852639456 -0.963168655792 -1.121004908757
H -1.346544777849 -1.798427497411 -2.604571164069
H -1.87000177451 -0.13114213166 -2.320549086584
O -0.988639557308 -0.402282508415 2.095259009761
O 0.921527680739 0.665876653008 2.778800499765
C 0.065490499526 -0.258268900455 2.769792703509
H 0.282106834084 -1.111724859635 3.497801322512
