15
Coordinates from XML
N 0.98215051563 -0.764918091288 -2.392455929876
C 0.043478853672 0.349753583949 -2.76981684195
H 1.759960319726 -0.833106695721 -3.070239934392
H 0.486087777671 -1.671802952349 -2.378302902418
H 1.384977492707 -0.6020607985 -1.454401590925
H -0.318060444687 0.130944461731 -3.779263320312
H 0.63824173742 1.26796539788 -2.796351818366
C -1.154557829757 0.537833653234 -1.821818388261
H -1.767628466776 -0.366104041097 -1.788040257852
H -1.782376279464 1.363506015172 -2.165869021946
H -0.814881859613 0.766444036611 -0.808670510299
O 0.235144749554 0.587891467231 1.405691252901
O 0.036608187548 -0.395706856428 3.467256049661
C -0.266244855014 -0.187881357833 2.26226044936
H -1.146020975991 -0.809132809689 1.881016602819
