15
Coordinates from XML
N -0.134283373716 -0.247475568533 -4.436400895873
C 0.4061493743 0.397904234978 -3.188436134915
H 0.336727527034 0.129255760938 -5.276193233698
H -1.148756766983 -0.071565733789 -4.529234961782
H 0.015800479584 -1.270070040921 -4.413742649683
H 0.244249652114 1.475071955924 -3.293642930361
H 1.482308658592 0.200043503527 -3.171340700379
C -0.230168874714 -0.094047088988 -1.876014687239
H -1.305010463912 0.102838931486 -1.868846955903
H 0.21713946565 0.421933872662 -1.022820342757
H -0.071783550539 -1.167549130814 -1.747101732188
O 0.190112918809 -0.26827261197 2.18601576327
O -0.487288703152 0.088464426497 4.347218569105
C 0.290897836709 0.176060786362 3.360467137934
H 1.252460214159 0.757938897152 3.565703388282
