325
Coordinates from XML
O 0.261807867556 -0.862193663453 0.207030878008
O -0.506275107579 0.628895654239 -1.356181529176
C 0.239302921006 0.228376063577 -0.423109580832
H 1.03032741679 0.98317725063 -0.091655700037
Li 2.9620473e-05 2.8268383e-05 3.356648074947
O 0.353594752582 0.104939034637 0.503503983049
O -0.361114172074 0.247162536213 -1.670408496471
C 0.007358576683 -0.344666284482 -0.62117435653
H 0.031714992238 -1.483928045494 -0.703610179555
Li 9.10702e-07 -4.2662336e-05 3.823793208493
O 0.051326223 -0.209908208655 0.527216110158
O 0.057822747769 -0.125687110502 -1.764027316847
C -0.106844193738 0.328509228285 -0.600620129226
H -0.460005796304 1.414355075076 -0.561608086468
Li -1.322504e-05 4.0662478e-05 3.927611230396
O 0.098595617661 -0.437075889966 0.487164508074
O 0.120751973139 0.677830251474 -1.516188988364
C -0.214715846172 -0.235667440537 -0.71624579732
H -0.924435628095 -1.014691516624 -1.157523011805
Li -2.6577255e-05 -2.9170413e-05 3.737268542576
O -0.051522061442 -0.19563255877 0.537837800302
O 0.280725768287 -0.07229682513 -1.727406450645
C -0.224362947402 0.262272220457 -0.622927051553
H -0.965984648091 1.129177359053 -0.684400572216
Li -2.7771303e-05 3.2463751e-05 3.875700730404
O 0.870888347413 -0.12125994744 0.208826597167
O -0.803490519546 -0.221702975386 -1.354278788921
C -0.065979512279 0.335720726231 -0.498543940364
H -0.283988832249 1.445412007423 -0.336175664975
Li -8.167175e-06 4.1555073e-05 3.5123619544
O 0.401985327066 -0.881722564341 0.127597225093
O -0.601058663409 0.622982154072 -1.281905631788
C 0.194866863095 0.253281269549 -0.378163626433
H 0.83902404319 1.090403137042 0.057261184868
Li 2.4120189e-05 3.1351121e-05 3.270140740206
O -0.089914841696 0.795184104086 0.286600768129
O -0.257207481993 -0.819411147068 -1.332666716708
C 0.339792105243 0.023710806885 -0.61179040027
H 1.462943996944 0.102159808451 -0.805908514631
Li 4.2059011e-05 2.934592e-06 3.546953096134
O 0.695543184009 0.88035918755 -0.796036983433
O -0.404350913706 -0.982184308459 -0.035710383027
C -0.285046715879 0.099669629763 -0.669969292885
H -1.227184606542 0.42920347303 -1.225927835511
Li -3.5282932e-05 1.2336634e-05 3.218196882396
O 1.134181700313 0.046658271079 -0.823852015385
O -1.144963432018 -0.158774584801 -0.681631596682
C 0.01054748294 0.109748304372 -0.257820573461
H 0.045517748157 0.472518432339 0.824991125222
Li 1.305128e-06 1.358447e-05 3.754627865904
O 1.077203276143 -0.4156162401 -0.342341337035
O -1.000689625287 0.5487690882 -0.246144306178
C -0.07490401399 -0.130338444606 -0.764468298293
H -0.322393354632 -0.561202485085 -1.793259562296
Li -9.271914e-06 -1.613295e-05 2.906738752056
O 0.700277341731 0.315350249198 0.302703616562
O -0.852289227223 -0.007503774249 -1.35326563693
C 0.14879756064 -0.301347010138 -0.647286036738
H 0.640703656627 -1.297400063926 -0.914143614425
Li 1.8417686e-05 -3.7300417e-05 3.633461600645
O -0.618910735311 -0.44532562246 -1.424431706922
O 0.743943023035 0.115204737562 0.332089624818
C -0.122388204406 0.323151766741 -0.558502334171
H -0.526992298182 1.391266823344 -0.585558075834
Li -1.5148804e-05 3.9999427e-05 3.52965711307
O -0.685658846633 0.93463853743 -0.422526522638
O 0.569359951378 -0.967986016674 -0.173770693031
C 0.113846787198 0.032637826476 -0.788738563556
H 0.490095570087 0.140607565599 -1.862091091297
Li 1.4092048e-05 4.039514e-06 2.975946066441
O -0.867148085994 -0.739277009333 -0.266282832735
O 0.61202964725 0.900485842849 -0.882840098589
C 0.249735704781 -0.157800056631 -0.303443986926
H 1.075139308031 -0.679466961084 0.289749735682
Li 3.091225e-05 -1.9531987e-05 3.09712419281
O 0.541290904508 -0.108359361271 -1.565074225409
O -0.682505512829 0.386435285165 0.309607728089
C 0.138229225537 -0.272202723153 -0.382863400001
H 0.595187494272 -1.171960961364 0.15279555251
Li 1.7109612e-05 -3.3692821e-05 3.495073694211
O -0.581268314288 0.312224277533 -1.544769189875
O 0.474228355901 0.007608397703 0.467708831117
C 0.104782782925 -0.313080060576 -0.693150626929
H 0.451080879637 -1.347916228929 -1.031526147442
Li 1.2970079e-05 -3.8752716e-05 3.789179140893
O -0.061272255514 -0.328243296992 -1.717805451777
O -0.278677926803 0.233216434675 0.494530323779
C 0.33277126396 0.093021924583 -0.597898706619
H 1.432718912901 0.400468987636 -0.567936513624
Li 4.1189971e-05 1.1514243e-05 3.893006408843
O -0.469289275513 1.053095255603 -0.566841768486
O 0.131004814107 -1.137999193124 -0.257513524182
C 0.3311430784 0.083104799978 -0.493681924257
H 1.425670641718 0.35790087787 -0.67201528825
Li 4.0988589e-05 1.0286199e-05 2.820259371571
O -0.256558300892 1.129233557625 -0.535800884385
O 0.469044742068 -1.010709994646 -0.14711893582
C -0.207997542238 -0.116027036171 -0.719903318529
H -0.895543688554 -0.499440930428 -1.547901109816
Li -2.574554e-05 -1.4362082e-05 3.010559746058
O 0.664372703418 -0.609561569938 -1.312401191614
O -0.492332497084 0.411696589972 0.383475186531
C -0.168410796747 0.193689870561 -0.81421993425
H -0.725019296259 0.833861810637 -1.579512770628
Li -2.0845894e-05 2.3974881e-05 3.737256416151
O 0.04363888262 -0.353708788723 -1.681123831955
O 0.295210392483 0.427323593034 0.459818024815
C -0.331693504475 -0.072058118755 -0.512053988317
H -1.428080342791 -0.31027459933 -0.296426835228
Li -4.1056561e-05 -8.919118e-06 3.702688658708
O -1.050314621863 0.459352243628 -0.665022558591
O 0.876420712025 -0.620607706305 -0.049954026078
C 0.170227582722 0.157847318545 -0.744378131659
H 0.732805190179 0.679644218729 -1.590865397095
Li 2.1070918e-05 1.9537942e-05 3.131674774012
O 0.106901831454 -0.439808862094 -1.683047999295
O 0.100113674731 0.164016095496 0.528802172285
C -0.202644245932 0.26997095044 -0.689408404828
H -0.872461374008 1.162300855254 -0.935169703472
Li -2.5083053e-05 3.341678e-05 3.944902820761
O -0.106516641028 -0.323589646154 0.517948943541
O 0.030564822681 0.638376097506 -1.558770204618
C 0.074348437655 -0.308136731943 -0.728636324604
H 0.320092298498 -1.32669262235 -1.18411421976
Li 9.202782e-06 -3.81406e-05 3.789174747753
O -0.392870467361 -0.300882378287 -1.634469892704
O 0.537867896841 -0.020352972673 0.442056338768
C -0.141933016425 0.314453048212 -0.564274345799
H -0.611120015705 1.353828598919 -0.494501254292
Li -1.7568118e-05 3.8922658e-05 3.7545899338
O 0.19523432757 0.923614219538 -1.245881454434
O -0.014717850574 -0.726135774918 0.332464793601
C -0.176705349592 -0.193313312999 -0.797484795645
H -0.760774896886 -0.832211144232 -1.543124511037
Li -2.1872407e-05 -2.3928389e-05 3.668048169085
O -0.349438998833 -0.818635679045 -1.307555362435
O 0.363201876348 0.53998233324 0.396331934223
C -0.013470205618 0.272773307199 -0.77569335521
H -0.058027816792 1.174330725552 -1.476061187637
Li -1.667192e-06 3.3763793e-05 3.616143127551
O 0.494079770516 0.489570059703 0.361698280442
O -0.157154308551 -0.503756091221 -1.599456780268
C -0.329812922374 0.013883613477 -0.46404322601
H -1.419941420427 0.059820845469 -0.125198293262
Li -4.0823953e-05 1.718311e-06 3.633484282155
O 0.917162022775 0.684966773262 -0.293029802184
O -1.025840364764 -0.399872543612 -0.84511423285
C 0.10637790774 -0.279077396203 -0.306211536836
H 0.458088967846 -1.201485086614 0.268914225818
Li 1.3166961e-05 -3.4544054e-05 3.079821270633
O 1.029171317809 -0.387054103493 -0.335100480493
O -0.971828682191 0.551945896507 -0.225100480493
C -0.058828682191 -0.164054103493 -0.824100480493
H -0.324828682191 -0.565054103493 -1.813100480493
Li 0.016551317809 -0.014154103493 2.947099519507
O 1.029171317809 -0.387054103493 -0.335100480493
O -0.971828682191 0.551945896507 -0.225100480493
C -0.058828682191 -0.164054103493 -0.824100480493
H -0.324828682191 -0.565054103493 -1.813100480493
Li 0.016551317809 -0.014154103493 2.947099519507
O 1.031785441725 -0.388551357129 -0.32671046462
O -0.969214558275 0.550448642871 -0.21671046462
C -0.056214558275 -0.165551357129 -0.81571046462
H -0.322214558275 -0.566551357129 -1.80471046462
Li -0.000214558275 -0.004551357129 2.89328953538
O 1.037013689558 -0.391545864402 -0.309930432875
O -0.963986310442 0.547454135598 -0.199930432875
C -0.050986310442 -0.168545864402 -0.798930432875
H -0.316986310442 -0.569545864402 -1.787930432875
Li -0.033746310442 0.014654135598 2.785669567125
O 1.044856061308 -0.396037625311 -0.284760385258
O -0.956143938692 0.542962374689 -0.174760385258
C -0.043143938692 -0.173037625311 -0.773760385258
H -0.309143938692 -0.574037625311 -1.762760385258
Li -0.084043938692 0.043462374689 2.624239614742
O 1.055312556974 -0.402026639857 -0.251200321768
O -0.945687443026 0.536973360143 -0.141200321768
C -0.032687443026 -0.179026639857 -0.740200321768
H -0.298687443026 -0.580026639857 -1.729200321768
Li -0.151107443026 0.081873360143 2.408999678232
O 1.068383176557 -0.409512908039 -0.209250242405
O -0.932616823443 0.529487091961 -0.099250242405
C -0.019616823443 -0.186512908039 -0.698250242405
H -0.285616823443 -0.587512908039 -1.687250242405
Li -0.234936823443 0.129887091961 2.139949757595
O -0.568122618457 -0.277603350062 -1.557817696017
O 0.403590543157 -0.012907359411 0.501949621929
C 0.161060670776 0.284377133669 -0.697936619002
H 0.693382832749 1.224340920306 -1.069968144123
Li 1.993607e-05 3.5199896e-05 3.754573389248
O -0.56039516362 0.555445957971 0.297157691011
O 0.255053471149 -0.732352657453 -1.415603264338
C 0.298896541111 0.173167467857 -0.54093939297
H 1.286826774113 0.745613110428 -0.500863202755
Li 3.6997193e-05 2.1434212e-05 3.546961865965
O -0.804186740412 0.748360753259 -0.803982343326
O 1.017729838441 -0.486139402871 -0.160895114237
C -0.209028719601 -0.256687926473 -0.332188022003
H -0.900034660273 -1.105082767275 -0.003488700349
Li -2.5872973e-05 -3.1772742e-05 2.768371622273
O 0.429281355809 -0.619390905889 0.331401204484
O -0.238092776788 0.387461912554 -1.617390987909
C -0.187153424148 0.227034556405 -0.368954347246
H -0.805736463173 0.97742422782 0.23069273635
Li -2.3165742e-05 2.8102242e-05 3.529680574391
O 0.01579455793 -0.010648495655 -1.758658144678
O 0.328901804565 -0.04862703028 0.512344568446
C -0.337416948665 0.058023771259 -0.551408563454
H -1.45272486162 0.249816509365 -0.394532609558
Li -4.176499e-05 7.182103e-06 3.841104424471
O -0.678039545983 0.005245602838 -1.440165464688
O 0.869947946661 -0.218652682664 0.236299900408
C -0.187851645719 0.208900190453 -0.297726656096
H -0.808846351838 0.899406435896 0.367760353526
Li -2.3251753e-05 2.5857363e-05 3.200940378671
O -0.005600121691 0.140727210722 0.525451940779
O -0.318283693438 -0.004750917893 -1.741263069551
C 0.317043874286 -0.133105476864 -0.661073369136
H 1.365010893309 -0.573063637028 -0.777298170036
Li 3.9243236e-05 -1.6475657e-05 4.014116645698
O 0.826111935063 0.707359241179 -0.106662946984
O -0.651880761191 -0.938194574032 -0.710502388445
C -0.170556428696 0.225956326109 -0.708185353919
H -0.734242019698 0.972906278277 -1.363647468349
Li -2.1111538e-05 2.7968284e-05 3.270099890679
O 0.12641152801 0.124543089504 0.550054378541
O -0.343293074713 -0.382123992743 -1.636174770919
C 0.212300581312 0.252140435156 -0.700252698903
H 0.914057945404 1.085585624375 -1.044072387854
Li 2.6278213e-05 3.1209533e-05 3.823783420272
O -0.242163040301 -0.073358428916 0.527680970191
O 0.490402619864 0.292633755292 -1.613890675738
C -0.242995707525 -0.214644114265 -0.7241031413
H -1.046224624279 -0.924142901028 -1.120008482098
Li -3.0077568e-05 -2.6568312e-05 3.875688206977
O 0.147181862961 0.896048046252 -1.245052519472
O -0.477993801473 -0.869212885213 0.077800863349
C 0.323824802568 -0.026273617624 -0.405382453177
H 1.394220044982 -0.113035373506 -0.015468766916
Li 4.0082513e-05 -3.252446e-06 3.356650269729
O 1.126458754228 -0.273155455721 -0.439594315271
O -1.1119004587 0.157843296338 -0.19277464502
C -0.014257353732 0.112878506229 -0.809283835355
H -0.06127855803 0.485965346787 -1.888126491051
Li -1.765176e-06 1.3972041e-05 3.097061580746
O -0.156388264356 -0.351230198793 -1.717520540287
O -0.19635400533 0.335316152336 0.469712571958
C 0.345293749945 0.015579993574 -0.621759964566
H 1.486624736377 0.067045725403 -0.61716454759
Li 4.2740022e-05 1.9286e-06 3.99681893307
O 0.260505743503 -0.05236247655 0.535561530954
O -0.516204154172 0.261987241465 -1.598645073299
C 0.25029691256 -0.205197480486 -0.714823626245
H 1.077661197823 -0.883469077443 -1.115725410019
Li 3.0981294e-05 -2.5399029e-05 3.806479037086
O -0.464609678512 0.687335448779 0.262976791166
O 0.200073786524 -0.897207383101 -1.255032347557
C 0.258951948586 0.205435760941 -0.648701366219
H 1.114856948514 0.884554467073 -0.982663451012
Li 3.2052873e-05 2.5428286e-05 3.51234336811
O -0.150140523338 -0.256673239566 0.511456541582
O -0.053758686964 -0.02920637305 -1.767995411466
C 0.199594011707 0.27984371816 -0.573329662732
H 0.859324741508 1.204824560749 -0.453029766639
Li 2.4705516e-05 3.4638748e-05 3.910312028753
O 0.11846215341 -0.216057889724 0.512955589806
O -0.046929000041 -0.129239901787 -1.772222793457
C -0.070023157727 0.338006833528 -0.60257628779
H -0.301468972884 1.455245809727 -0.543279030612
Li -8.66741e-06 4.183808e-05 3.979518727141
O 0.561365085206 -0.340661856273 0.357245594573
O -0.628410661096 -0.005509692836 -1.573826268629
C 0.065626423345 0.33886285859 -0.580525774698
H 0.282602815167 1.458919695169 -0.519696602215
Li 8.122934e-06 4.1944084e-05 3.841100819594
O 0.756574339237 -0.072296287533 0.328578996435
O -0.457841910559 0.115503369382 -1.607100806914
C -0.292427989313 -0.042294190957 -0.368285257848
H -1.258958472958 -0.182101613272 0.224655691027
Li -3.6196598e-05 -5.235087e-06 3.512378077587
O -1.087868594646 -0.202841634679 -0.12455034406
O 1.139472765127 -0.107926391952 -0.660155986058
C -0.050508076514 0.304206212622 -0.628248106582
H -0.21756110015 1.309720711621 -1.144329630759
Li -6.25141e-06 3.7654283e-05 3.027873670477
O 0.594485297263 -0.880968530218 -1.071623729566
O -0.625491169108 0.968906045882 -0.482935939476
C 0.030347636067 -0.086075307797 -0.273614165607
H 0.130715434324 -0.3706740766 0.82830965475
Li 3.756164e-06 -1.0653948e-05 3.893046548075
O -0.230989892522 1.136651647629 -0.501759989633
O 0.159198091979 -1.093963176866 -0.142534877067
C 0.070276992856 -0.041793517905 -0.829526759766
H 0.302551300814 -0.179832735519 -1.939616882352
Li 8.698871e-06 -5.173566e-06 3.166269393623
O 0.518052194779 -0.848226382097 -1.145584226039
O -0.766644154722 0.795772807536 -0.194924563456
C 0.243339051947 0.051350729754 -0.307598838942
H 1.047728718274 0.221007700396 0.485798940876
Li 3.0119964e-05 6.356437e-06 3.512385589816
O 0.921083044238 -0.435957237476 -1.093577710845
O -0.693897294544 0.429540147919 0.284712759711
C -0.222393226712 0.006284088703 -0.804077404809
H -0.957413025278 0.027014884358 -1.678504297023
Li -2.7527858e-05 7.77998e-07 3.460416397525
O -0.633324690723 0.218082169993 0.377736588588
O 0.488800798537 -0.53741129137 -1.473478108899
C 0.141475409265 0.312584076786 -0.611040431105
H 0.609053676909 1.345830486527 -0.749166027523
Li 1.7511859e-05 3.8691125e-05 3.650768666669
O -0.065632888341 0.278045513862 0.5144878763
O -0.280864062174 -0.326882539978 -1.686573102294
C 0.339179798767 0.04780404979 -0.655999781293
H 1.460310026844 0.205843221909 -0.808960206789
Li 4.1983212e-05 5.917013e-06 3.910301795964
O -0.931665475924 0.054696373071 0.151918399642
O 0.691457321725 0.037708034102 -1.467376391336
C 0.235140677394 -0.09045327138 -0.30021076475
H 1.012295339094 -0.389435449144 0.482059360703
Li 2.9105723e-05 -1.1196196e-05 3.443176185323
O -0.26895400737 1.051477895833 -0.100661174753
O 0.412872631323 -1.08036523327 -0.597942933583
C -0.140877709791 0.028271201491 -0.824242768392
H -0.606564853435 0.121818297084 -1.8633244231
Li -1.743754e-05 3.498976e-06 3.270085525257
