12
Coordinates from XML
N -0.303828205352 0.629084679387 -0.585271927687
C -0.451417965921 0.040531904143 -1.962886381672
H -1.158037871383 1.144955489916 -0.314657650157
H 0.493923440118 1.28572610826 -0.551611187402
H -0.140526156253 -0.11419968386 0.114441449498
H -0.652921731421 0.873772421292 -2.643089852679
H -1.327363193208 -0.614790668151 -1.934038277143
C 0.769594915062 -0.751438006572 -2.464163032332
H 1.654448637267 -0.111830912012 -2.509291495515
H 0.580021845977 -1.143200302686 -3.46658312811
H 0.982700998028 -1.594752794286 -1.802712307844
Na 3.3804024e-05 -7.7390264e-05 3.241890232191
