12
Coordinates from XML
N 0.323515862062 0.432741915336 -3.081216888935
C 0.3635803648 0.237604946476 -1.589132746031
H 1.069063552538 1.081396326215 -3.385248187282
H -0.586219527126 0.826726364774 -3.37426377027
H 0.45912347065 -0.46721323062 -3.571552820576
H 0.247152081053 1.227471325094 -1.137270713853
H 1.358652926878 -0.148632667763 -1.347863125801
C -0.709213587603 -0.714388472666 -1.03039421944
H -1.711992336263 -0.341498952499 -1.2528534523
H -0.609785232363 -0.800288384721 0.054500660668
H -0.604798841948 -1.712474025983 -1.462868361846
Na -3.6965358e-05 -5.1498062e-05 3.922586681003
