12
Coordinates from XML
N -0.137626213512 -0.177812680033 -3.576768716089
C 0.561714493104 0.005711684803 -2.256450544555
H 0.548848321766 -0.299690260892 -4.340265606455
H -0.723410615963 0.644806210728 -3.797842219269
H -0.747322557384 -1.012394445669 -3.554821988844
H 1.209970858078 0.881193061276 -2.360692252243
H 1.183987168805 -0.881269830122 -2.102826206128
C -0.3728917959 0.19627137343 -1.048325896548
H -0.997511873082 1.083514252709 -1.177746743595
H 0.212512031712 0.321269183516 -0.134028570898
H -1.023620065326 -0.672316550364 -0.920972715551
Na 2.1657752e-05 2.2022705e-05 4.709754384654
