12
Coordinates from XML
N 1.085299359392 0.592554805626 -1.351609064604
C -0.347166528096 0.200061032975 -1.10668293265
H 1.391126157857 1.305264086453 -0.667836891827
H 1.199559287319 0.986043054118 -2.300729903364
H 1.709193171191 -0.227107739094 -1.264157143622
H -0.943258377236 1.114684664209 -1.182236949598
H -0.400530450356 -0.175404815077 -0.080165705884
C -0.903685307258 -0.860243423379 -2.073848060111
H -0.867941949639 -0.500831334002 -3.105179862052
H -1.943819420446 -1.087409953967 -1.827315937329
H -0.327054730433 -1.786091083254 -2.007407234751
Na -0.000136977071 -7.1555819e-05 3.028537909704
