12
Coordinates from XML
N -0.593653696694 -0.126968944646 -3.013298726131
C -0.361642052585 -0.189756849265 -1.527288306743
H -1.533635355112 -0.485393752896 -3.252035134263
H 0.106476927045 -0.696728879377 -3.517192986745
H -0.523613868721 0.846698272895 -3.353599455021
H -0.481993284169 -1.236646309505 -1.232147106646
H -1.151996093717 0.404861778977 -1.058962453609
C 1.013680703846 0.322620595506 -1.063258409823
H 1.817950624426 -0.264718306573 -1.513017047598
H 1.099354958695 0.243107627922 0.023295456141
H 1.150571006923 1.370662776708 -1.340710614795
Na 7.035858e-05 1.4112197e-05 3.855874393295
