12
Coordinates from XML
N -1.156694391004 0.40961349465 -1.536855556607
C 0.173809221429 0.27157467958 -2.227293181116
H -1.75750185906 1.088979335345 -2.03336474557
H -1.03197680402 0.73916382406 -0.564970376515
H -1.650530860232 -0.498196635223 -1.509573257226
H 0.623960502224 1.268798106429 -2.249191816744
H -0.034475989158 -0.047175067082 -3.253244348644
C 1.147883187956 -0.720152866376 -1.56621568352
H 1.376566948399 -0.414482718016 -0.54231655694
H 2.084548501631 -0.760585260536 -2.127718136995
H 0.720468384504 -1.725568200071 -1.542389494979
Na 0.000144363121 -4.8359104e-05 3.522164133973
