420
Coordinates from XML
N -0.303828205352 0.629084679387 -0.585271927687
C -0.451417965921 0.040531904143 -1.962886381672
H -1.158037871383 1.144955489916 -0.314657650157
H 0.493923440118 1.28572610826 -0.551611187402
H -0.140526156253 -0.11419968386 0.114441449498
H -0.652921731421 0.873772421292 -2.643089852679
H -1.327363193208 -0.614790668151 -1.934038277143
C 0.769594915062 -0.751438006572 -2.464163032332
H 1.654448637267 -0.111830912012 -2.509291495515
H 0.580021845977 -1.143200302686 -3.46658312811
H 0.982700998028 -1.594752794286 -1.802712307844
Na 3.3804024e-05 -7.7390264e-05 3.241890232191
N -0.206933745419 -1.22743187286 -1.426483565551
C -0.212929906407 0.164269049336 -2.000183207969
H -0.656192273363 -1.893217138714 -2.077579325591
H -0.721315886537 -1.255789957498 -0.53019927397
H 0.760735947546 -1.547852312895 -1.254192761892
H -1.259201714044 0.4251275676 -2.186833755497
H 0.317023699159 0.113885620925 -2.956305906261
C 0.435112474129 1.237067129502 -1.106587982085
H -0.085870843985 1.309992691029 -0.148799817603
H 0.38952124438 2.213483287519 -1.595254145978
H 1.484477068154 0.999778143016 -0.91517486759
Na 2.3800928e-05 0.00015302352 3.001858002937
N 0.080451033515 0.698688891744 -0.77489620757
C 0.520459701767 0.003856906396 -2.035689439825
H 0.868282430718 1.214141018058 -0.347509112585
H -0.270430148518 0.014691427071 -0.083702628451
H -0.67647391078 1.373936903906 -0.974502732701
H 1.339234370277 -0.667037653031 -1.75805871163
H 0.906989071454 0.778760407157 -2.704778028113
C -0.581307094309 -0.79588076032 -2.753948910352
H -0.974931425257 -1.582152956899 -2.105153224275
H -0.180118755358 -1.265945542586 -3.655252805141
H -1.405738597626 -0.141760786411 -3.048144169953
Na -5.62858e-06 -8.6302313e-05 3.615457742414
N 0.971511863922 -0.406668655468 -1.137083423067
C 0.024775744547 -0.278832026867 -2.300417943813
H 1.715379736694 -1.094053051249 -1.344910789395
H 0.469464093555 -0.720843308763 -0.289757616251
H 1.420115257073 0.501211271234 -0.929124175989
H -0.386456970943 -1.276051422469 -2.484839796221
H 0.624904334194 0.023652011564 -3.164078184002
C -1.124916196763 0.723648047576 -2.09399794495
H -1.742869744374 0.434219935163 -1.240496507318
H -1.761879998481 0.75571970303 -2.981415669485
H -0.735265284669 1.729099987003 -1.916939596077
Na -0.000119838012 4.7935172e-05 3.61550030105
N -0.63022780351 -0.23360796084 -0.947370145196
C -0.140283918144 -0.417312910735 -2.358825483164
H -1.286686419951 -0.988801037925 -0.687034909159
H -1.121471313711 0.670279043876 -0.84545451445
H 0.15998090604 -0.249067993381 -0.280984973658
H -1.025138261516 -0.423469293656 -3.002692844399
H 0.33751958383 -1.40089298758 -2.401650406235
C 0.846668731102 0.657864917931 -2.847992305823
H 0.385269513008 1.648080641572 -2.821848367795
H 1.151780424895 0.45042605014 -3.876650492026
H 1.742798712335 0.674485216551 -2.22286358539
Na 7.6705633e-05 2.541088e-05 4.0023619328
N -0.357598786949 -1.166883123969 -2.212605258668
C -0.438123793973 0.240411859704 -1.684367393051
H -1.232430942792 -1.681756587248 -2.016128924691
H 0.424340914272 -1.679095586147 -1.771099430117
H -0.206743750538 -1.165591248163 -3.235336456562
H -0.629789671381 0.164547557045 -0.60962133564
H -1.300686154488 0.709959883074 -2.167141414795
C 0.818045064786 1.096696065306 -1.925581474359
H 1.69048021237 0.649371155183 -1.443028615756
H 0.676594068252 2.099042732545 -1.513811553343
H 1.022255460081 1.192555611881 -2.994796212605
Na 4.0558046e-05 0.000146170435 3.922478569772
N -0.86920324202 -0.885132962816 -1.906021248777
C 0.473549936643 -0.213443047074 -1.797185368764
H -0.840242353241 -1.830174264002 -1.487587096401
H -1.151998357719 -0.979102243128 -2.895928010191
H -1.593713474745 -0.336280266164 -1.413493428086
H 1.193234359788 -0.860029643574 -2.30860534609
H 0.722711333855 -0.176575096042 -0.732235003523
C 0.539649555605 1.204601405683 -2.392288591642
H 0.302773933681 1.188651612349 -3.458935425009
H 1.543930492537 1.618300943307 -2.271730780258
H -0.166213824974 1.869549161146 -1.888589807486
Na 0.000111322731 0.000107597724 4.069189440367
N 1.064609303544 -0.608221240958 -1.112015512042
C 0.081008765332 0.277374823933 -1.82912657846
H 1.955186764054 -0.663499441961 -1.634361222492
H 0.689085754826 -1.566211286217 -1.01223657166
H 1.266951692076 -0.240245431846 -0.167351881001
H -0.061207101764 -0.150181718865 -2.826393011644
H 0.553695415763 1.25945344063 -1.927355134548
C -1.283421090565 0.428424063176 -1.132791622307
H -1.777035559497 -0.541364854493 -1.033021213234
H -1.934418794504 1.084487603468 -1.715924809637
H -1.164409759187 0.862807582572 -0.137172038439
Na -0.000130874341 7.7445711e-05 2.681639406252
N -0.233033993121 1.145893082221 -1.085475047623
C 0.558930075461 -0.014259309435 -1.626620160056
H 0.379886679477 1.962331752585 -0.92181356609
H -0.682841442831 0.895279589797 -0.189046112905
H -0.97270357668 1.426043982469 -1.751164460448
H 1.338915480213 -0.235309459544 -0.891548810859
H 1.030065200381 0.3296192839 -2.552546256034
C -0.262084561144 -1.285875411363 -1.906431759702
H -0.734151895531 -1.651545014504 -0.991260684742
H 0.385499783504 -2.075483260252 -2.295553405388
H -1.042065434118 -1.088662831253 -2.645923565433
Na 3.3424088e-05 -0.000141706747 3.041841608432
N -0.424603652865 -1.079209836777 -1.153542068259
C 0.304150123428 0.237380269511 -1.192363660997
H -0.308502695845 -1.53432282204 -0.232443988614
H -0.060615552979 -1.720240465404 -1.878325550206
H -1.435605580601 -0.942719058776 -1.32082441561
H 1.355536021685 0.02361488229 -0.976812411701
H -0.107168411847 0.849840010329 -0.384112427459
C 0.195067543099 1.000135450378 -2.524907318904
H 0.609458489786 0.408687188145 -3.345010373224
H 0.74901041556 1.940452826027 -2.468230862561
H -0.84787437112 1.231632624399 -2.754673105492
Na 5.4987386e-05 0.00013531161 3.228625948879
N 0.323515862062 0.432741915336 -3.081216888935
C 0.3635803648 0.237604946476 -1.589132746031
H 1.069063552538 1.081396326215 -3.385248187282
H -0.586219527126 0.826726364774 -3.37426377027
H 0.45912347065 -0.46721323062 -3.571552820576
H 0.247152081053 1.227471325094 -1.137270713853
H 1.358652926878 -0.148632667763 -1.347863125801
C -0.709213587603 -0.714388472666 -1.03039421944
H -1.711992336263 -0.341498952499 -1.2528534523
H -0.609785232363 -0.800288384721 0.054500660668
H -0.604798841948 -1.712474025983 -1.462868361846
Na -3.6965358e-05 -5.1498062e-05 3.922586681003
N 0.247944133557 -1.203073829696 -1.564049269192
C -0.517166730103 0.01195297252 -2.01606024993
H -0.295562539527 -2.064456641762 -1.741951155886
H 0.449884891527 -1.152346367139 -0.551446013117
H 1.146561713444 -1.278407861013 -2.069568055137
H -1.464456877204 0.011355299576 -1.468144828636
H -0.72300172997 -0.123204444243 -3.08232679898
C 0.205843426702 1.352874421724 -1.79571267059
H 0.412733641116 1.511783040332 -0.734560271822
H -0.415117721198 2.179403126959 -2.149999624654
H 1.151605829269 1.37764385259 -2.342549984502
Na -3.492165e-05 0.00014875176 3.56219188942
N 0.693566909121 -0.971959164744 -1.518762300499
C -0.121521766807 0.288165959788 -1.401656316888
H 1.02947618398 -1.277738641887 -0.589949722891
H 1.516618403164 -0.820113726906 -2.125596627611
H 0.128749332219 -1.736439619474 -1.925319496054
H 0.523630924292 1.040379176513 -0.937411154661
H -0.951940335221 0.065243983968 -0.724699359593
C -0.671953667198 0.830738979348 -2.732823592995
H 0.142940296501 1.068744213421 -3.420865204949
H -1.249409714608 1.742151710939 -2.559234884829
H -1.326972865372 0.097110518157 -3.209111558047
Na -8.6699999e-05 0.000122485188 3.76230459844
N -0.137626213512 -0.177812680033 -3.576768716089
C 0.561714493104 0.005711684803 -2.256450544555
H 0.548848321766 -0.299690260892 -4.340265606455
H -0.723410615963 0.644806210728 -3.797842219269
H -0.747322557384 -1.012394445669 -3.554821988844
H 1.209970858078 0.881193061276 -2.360692252243
H 1.183987168805 -0.881269830122 -2.102826206128
C -0.3728917959 0.19627137343 -1.048325896548
H -0.997511873082 1.083514252709 -1.177746743595
H 0.212512031712 0.321269183516 -0.134028570898
H -1.023620065326 -0.672316550364 -0.920972715551
Na 2.1657752e-05 2.2022705e-05 4.709754384654
N 1.085299359392 0.592554805626 -1.351609064604
C -0.347166528096 0.200061032975 -1.10668293265
H 1.391126157857 1.305264086453 -0.667836891827
H 1.199559287319 0.986043054118 -2.300729903364
H 1.709193171191 -0.227107739094 -1.264157143622
H -0.943258377236 1.114684664209 -1.182236949598
H -0.400530450356 -0.175404815077 -0.080165705884
C -0.903685307258 -0.860243423379 -2.073848060111
H -0.867941949639 -0.500831334002 -3.105179862052
H -1.943819420446 -1.087409953967 -1.827315937329
H -0.327054730433 -1.786091083254 -2.007407234751
Na -0.000136977071 -7.1555819e-05 3.028537909704
N 0.566289070743 -1.10128895531 -1.756313953883
C -0.433659642356 0.001356027877 -1.980535502191
H 0.372147316571 -1.903179819789 -2.379458363031
H 0.528860720757 -1.435792636307 -0.778855460945
H 1.526303377838 -0.768941254897 -1.947770346575
H -1.42344521023 -0.426027533629 -1.792817336091
H -0.362079527997 0.282703647306 -3.035656221526
C -0.233758980207 1.247426357421 -1.099220839541
H -0.310824690296 0.98944092778 -0.040162617477
H -0.997405094141 1.995925445475 -1.324732305893
H 0.746741732075 1.695423516044 -1.278184505627
Na -7.3565708e-05 0.000136085115 3.228693904442
N -0.371577226136 -0.654159328817 -2.732087933652
C -0.240515899078 -0.252203566373 -1.287355022665
H -0.979815315062 -1.484894545703 -2.826715416467
H 0.55312605124 -0.883948104044 -3.133136143957
H -0.784042555253 0.112837895526 -3.289156712374
H 0.169071957017 -1.115835047111 -0.754486612533
H -1.252905773281 -0.055822034163 -0.921211656594
C 0.647830276853 0.979199613815 -1.034660829952
H 1.667208855639 0.800151419953 -1.385244601236
H 0.688697086549 1.202397885647 0.034345310777
H 0.250659345999 1.856217906505 -1.551579837797
Na 4.3923993e-05 7.8736446e-05 3.482296956296
N -0.593653696694 -0.126968944646 -3.013298726131
C -0.361642052585 -0.189756849265 -1.527288306743
H -1.533635355112 -0.485393752896 -3.252035134263
H 0.106476927045 -0.696728879377 -3.517192986745
H -0.523613868721 0.846698272895 -3.353599455021
H -0.481993284169 -1.236646309505 -1.232147106646
H -1.151996093717 0.404861778977 -1.058962453609
C 1.013680703846 0.322620595506 -1.063258409823
H 1.817950624426 -0.264718306573 -1.513017047598
H 1.099354958695 0.243107627922 0.023295456141
H 1.150571006923 1.370662776708 -1.340710614795
Na 7.035858e-05 1.4112197e-05 3.855874393295
N -1.156694391004 0.40961349465 -1.536855556607
C 0.173809221429 0.27157467958 -2.227293181116
H -1.75750185906 1.088979335345 -2.03336474557
H -1.03197680402 0.73916382406 -0.564970376515
H -1.650530860232 -0.498196635223 -1.509573257226
H 0.623960502224 1.268798106429 -2.249191816744
H -0.034475989158 -0.047175067082 -3.253244348644
C 1.147883187956 -0.720152866376 -1.56621568352
H 1.376566948399 -0.414482718016 -0.54231655694
H 2.084548501631 -0.760585260536 -2.127718136995
H 0.720468384504 -1.725568200071 -1.542389494979
Na 0.000144363121 -4.8359104e-05 3.522164133973
N -1.030190697119 -0.52131014098 -2.528054008862
C 0.001595839504 0.537675218232 -2.245272746545
H -1.779840118584 -0.148589030972 -3.134794194569
H -1.461826691458 -0.855138076083 -1.650006186966
H -0.601278475627 -1.331512769033 -3.005907565771
H -0.523672493045 1.372918991991 -1.771953291929
H 0.391078310467 0.865620220101 -3.213939566799
C 1.166580534152 0.08480123581 -1.346894823406
H 0.799413365144 -0.238474155074 -0.369765755703
H 1.867133196061 0.909248534907 -1.192705613329
H 1.710643430736 -0.744099485981 -1.806275115404
Na 0.000127301607 6.886812e-05 4.122626121363
N -1.050882552958 -0.404009613788 -2.613097359626
C 0.140870102913 -0.396422703808 -1.693495958736
H -1.620620001519 -1.254214558323 -2.466196965152
H -0.749982807188 -0.384128854891 -3.601926362954
H -1.650852920513 0.420116027636 -2.441078467342
H 0.710435842095 -1.306354718299 -1.906072736992
H -0.248163780519 -0.450874652437 -0.672101054239
C 1.058929559096 0.831371590391 -1.831536103427
H 1.465984775751 0.899065672683 -2.84337773388
H 1.894856716594 0.758474158846 -1.131412224796
H 0.510874763276 1.751442354172 -1.614241775116
Na 0.000131016947 4.6633853e-05 4.162663836464
N -0.05021483743 0.5185354165 -2.80400519696
C 0.37701132995 0.308312688761 -1.375970569527
H 0.441374179913 1.328883809879 -3.217169393469
H -1.067217528636 0.695666006884 -2.859222761458
H 0.164322591051 -0.315134546021 -3.376461395696
H 0.151756392656 1.234638796354 -0.838615524407
H 1.461109614834 0.159617097335 -1.389404031558
C -0.298103276804 -0.878255193498 -0.664884074058
H -1.382175063153 -0.744708172555 -0.632426739915
H 0.066680986961 -0.960307408599 0.36198571735
H -0.077905989671 -1.815757312466 -1.181327707351
Na 9.323699e-06 -6.1513913e-05 3.348896295679
N 1.148244906745 0.290450113443 -2.020803403222
C 0.069695984141 -0.296331196161 -1.14993107805
H 2.083989817676 0.087225635577 -1.630790317337
H 1.043830786714 1.31655673894 -2.090957405588
H 1.103521194891 -0.10507159167 -2.974900035898
H 0.195602111856 0.138833751131 -0.153763720348
H 0.259483479627 -1.372647373116 -1.094396207186
C -1.367589588455 -0.050261067196 -1.642908511549
H -1.580895073227 1.020115698619 -1.696706956416
H -2.085426752378 -0.50740602641 -0.95735035504
H -1.517202450294 -0.485533192106 -2.634001475679
Na -0.000141300605 -3.8338489e-05 3.26875610787
N 0.472451921429 0.760005412414 -2.48615244621
C 0.077418598092 0.265796952188 -1.120244190947
H 0.925837375845 1.687055513798 -2.422523261503
H -0.356700709375 0.847615675794 -3.097339042907
H 1.136433464365 0.106169990405 -2.933774793359
H -0.595494876805 1.016453840153 -0.694483717496
H 0.992533300777 0.228018741917 -0.521330327475
C -0.608630385287 -1.112020635815 -1.102284177241
H -1.530980490679 -1.093318249257 -1.687963634897
H -0.860737734008 -1.395015747591 -0.077287911379
H 0.051062044056 -1.878828880155 -1.515711449903
Na -5.7739457e-05 -9.1702986e-05 3.242132086734
N -0.624086029688 -0.236264612755 -2.950834355023
C 0.168735662527 -0.506865248084 -1.700151441166
H -0.843297277913 -1.118809651464 -3.442860388075
H -0.091817657578 0.369935929134 -3.597309398984
H -1.515006853376 0.236536652848 -2.723992861324
H 1.076801806373 -1.033806514856 -2.008889305175
H -0.437121565065 -1.17531864979 -1.080742854187
C 0.548769250617 0.745188833593 -0.889409728918
H 1.162820784749 1.422678889647 -1.487780734797
H 1.119391721554 0.461401851448 -0.001650393272
H -0.345500151009 1.28187650376 -0.563281415662
Na 7.8514066e-05 2.4995136e-05 3.802501715821
N 0.068432740104 -1.068824016701 -2.655818702354
C 0.15670073174 0.408725445668 -2.381856956104
H 0.338000811948 -1.276366567466 -3.632183428347
H -0.895615036064 -1.411362850686 -2.507502378649
H 0.698836104338 -1.59548891004 -2.028161389336
H -0.506368635588 0.903565329044 -3.098127011902
H 1.189173607751 0.706957792634 -2.58829618596
C -0.22518440207 0.827030453172 -0.950580693194
H -1.257312544749 0.546172602249 -0.727129830666
H -0.133736939271 1.910035995536 -0.836571700751
H 0.431780881574 0.350078295657 -0.219127105993
Na -7.162269e-06 0.000135450307 4.042595483168
N -0.630257648186 0.586508689625 -1.182217720474
C 0.059520991342 -0.538083125424 -1.907129693389
H -1.006813865529 0.260800356731 -0.276045313609
H -1.415512514738 0.956389731863 -1.743717060233
H 0.028682279601 1.361484558445 -0.9979662933
H -0.682470731367 -1.331496112999 -2.039471687776
H 0.853081940948 -0.899974742815 -1.24617931354
C 0.658551605577 -0.158342258089 -3.273265218285
H -0.120084501647 0.19743724246 -3.952416661498
H 1.138771215731 -1.02740121502 -3.729759850236
H 1.409611728627 0.627575553363 -3.162121258008
Na 7.8363779e-05 -7.6927258e-05 4.175826149383
N 0.282007260581 -0.454438866236 -3.390116797369
C -0.43459867004 -0.315173949676 -2.073651866687
H -0.121064936722 -1.22761225509 -3.945782747765
H 1.285494629879 -0.653230097993 -3.241073698785
H 0.203390247545 0.415448855995 -3.943156334901
H -0.339222051847 -1.275810995268 -1.558239355936
H -1.48950981023 -0.139205259402 -2.305508362058
C 0.089505641417 0.812037915977 -1.165866013007
H 1.14055747546 0.650108783223 -0.914531730783
H -0.482904463335 0.844621665624 -0.235518408702
H -0.005208276335 1.782516710263 -1.659131943643
Na -3.8441494e-05 5.3537115e-05 4.536301380687
N -1.2327084065 -0.159608274055 -1.588932565616
C 0.143313963919 0.360394830766 -1.908554056732
H -1.931671063637 0.22871233641 -2.244437898406
H -1.509499190486 0.104360843892 -0.628502523359
H -1.260114210119 -1.190490912071 -1.661513022119
H 0.0919333154 1.451664011072 -1.844821067078
H 0.356521730085 0.074241572979 -2.943067802221
C 1.262771535921 -0.15836719766 -0.988191205542
H 1.073462194028 0.125199434705 0.050005240889
H 2.224614822936 0.265115750564 -1.287826612976
H 1.336914080355 -1.247176234088 -1.043948357531
Na 0.000153500366 2.2710055e-05 2.988537953663
N 0.00316532587 -1.09935359842 -0.989849559629
C -0.545434874634 0.108894964132 -1.700604033127
H -0.758636636921 -1.749258693531 -0.732342140833
H 0.496883802164 -0.822078545162 -0.124933777367
H 0.670363590582 -1.60761362254 -1.594213884807
H -1.263600484632 0.577165845068 -1.020507843177
H -1.078624424035 -0.258769457384 -2.58269909924
C 0.510019904787 1.143996616364 -2.129494291404
H 1.048397789296 1.531167709588 -1.260962356849
H 0.030144785347 1.984837838546 -2.636414011302
H 1.232883397741 0.698268248783 -2.81717567663
Na -4.90929e-06 0.00013674088 3.161897112276
N -0.657401913128 1.048904231211 -1.860079674723
C 0.337408721871 -0.037947783943 -2.168467722721
H -0.664616047776 1.761285702312 -2.609405725114
H -0.421321765027 1.519068185408 -0.970174781352
H -1.611132426623 0.658824138677 -1.776571333003
H 1.312798704044 0.446691869858 -2.274811869432
H 0.046903668366 -0.467695640452 -3.132046220725
C 0.42770820093 -1.1535681686 -1.111772763464
H 0.726013939073 -0.746182639473 -0.142674914664
H 1.168773753026 -1.898658844396 -1.411645112871
H -0.535280262431 -1.657035711931 -0.996513286866
Na 8.4026991e-05 -0.000129914954 3.428818388871
N -1.017303471911 0.210260199552 -2.453975857603
C -0.161013817599 -0.364230557166 -1.357286708908
H -1.985425092435 -0.146463703996 -2.386763370573
H -0.642734374254 -0.046128275409 -3.382782425402
H -1.048445346403 1.241691707988 -2.391387990103
H -0.198961049518 -1.452740905084 -1.463472955491
H -0.630691531818 -0.082772679901 -0.40979304867
C 1.30511631253 0.104546658032 -1.366086682652
H 1.795832030094 -0.175318760029 -2.301486787212
H 1.854005690109 -0.356658737592 -0.541300814788
H 1.365721090294 1.189635728452 -1.25198206019
Na 0.000124366054 -2.9000381e-05 3.535625535626
N -0.924710319965 0.226431912857 -2.602852951999
C -0.181796329743 0.193889088248 -1.294029641464
H -1.854302743613 0.663416624318 -2.484822355347
H -1.062168990037 -0.73041162131 -2.969287481684
H -0.399700001622 0.770372927628 -3.307998576805
H -0.805172101992 -0.366014777585 -0.590125815294
H -0.100867591297 1.229946570827 -0.951107842529
C 1.21967617536 -0.439351449529 -1.359208735176
H 1.160212166987 -1.478748607618 -1.691198950037
H 1.687952518718 -0.42254162314 -0.371941603348
H 1.861866338376 0.111136161871 -2.051065858374
Na 0.000112749986 -2.6376434e-05 3.602348865632
N -0.678127717152 -0.835020836392 -1.247237164037
C 0.534849443155 -0.062541505167 -1.69216500302
H -0.423815186114 -1.532053225299 -0.527167778997
H -1.105506894474 -1.33576755588 -2.04430583179
H -1.388664865031 -0.200631655213 -0.845459436447
H 1.253536409986 -0.794212453846 -2.073893906125
H 0.951657266069 0.412690371723 -0.798864476855
C 0.265268727495 1.005673383766 -2.767158149187
H -0.143322945364 0.549962235083 -3.672409560197
H 1.193690803074 1.517752610105 -3.031863663167
H -0.444312968512 1.752280275549 -2.402215605033
Na 8.8220615e-05 0.000102654301 3.762268639583
N -0.47316169145 0.257494301852 -0.992918736581
C -0.348062912489 0.249231184769 -2.493012302629
H -1.306189627321 0.794517756254 -0.698471455425
H 0.359492097039 0.689900539014 -0.558832093181
H -0.564617788855 -0.705503236681 -0.628214010636
H -0.28838304354 1.294534080489 -2.811368170083
H -1.271030167955 -0.189555348251 -2.884366045269
C 0.864277696923 -0.526626600123 -3.038578082248
H 1.798047628228 -0.097980394262 -2.66650810376
H 0.880000430485 -0.483501060192 -4.130436441677
H 0.819205805819 -1.576550085091 -2.739011236544
Na 5.5583848e-05 -2.9747791e-05 4.242502316064
