11
Coordinates from XML
O -0.495747644052 0.088556277615 -2.211936681781
O 0.253484835672 0.156815507806 -4.377790603176
C 0.237163729348 -0.240162708665 -3.182354399468
H 1.021030305017 -1.034027284918 -2.936105569783
C 0.346901453058 -0.101989107744 1.073892555458
C -0.031749685465 0.0118068578 2.592417015443
O -0.950642927063 0.866678061945 2.895155215763
O 0.628935451669 -0.772173202031 3.380976785671
H -0.260619092208 0.577402495082 0.463619919848
H 1.413748205368 0.135520274558 0.947746745339
H 0.200132246678 -1.139623659669 0.739352307881
