11
Coordinates from XML
O 0.609277 -0.240688 -2.25416
O -0.294814 0.181801 -4.31839
C -0.307603 0.057698 -3.06485
H -1.32456 0.248333 -2.58032
C 0.969212 0.382067 1.43294
C -0.0723632 -0.0344938 2.53014
O 0.186141 -1.11317 3.19078
O -1.08713 0.758514 2.64994
H 1.80798 -0.3238 1.3967
H 0.468944 0.418431 0.453711
H 1.3401 1.39482 1.64956
