11
Coordinates from XML
O 0.362796 -0.715133 -1.99882
O -0.0667589 0.884619 -3.58413
C -0.289851 -0.166042 -2.9259
H -1.24783 -0.714794 -3.21993
C -0.697352 -1.00596 1.37644
C 0.0595378 0.0783956 2.22115
O 1.29428 0.292784 1.91087
O -0.64681 0.641728 3.14672
H -0.0453165 -1.42966 0.602868
H -1.05099 -1.80457 2.0455
H -1.58441 -0.550792 0.911576
