11
Coordinates from XML
O 0.671942684752 -0.238673335094 -2.160421041468
O -0.897943574352 0.325994722969 -3.733169895444
C 0.221179749492 -0.085454566828 -3.326723997499
H 0.952387384786 -0.367965187478 -4.157885475978
C -0.019224941389 0.042349784948 0.890537034292
C -0.000942693329 -0.008915695055 2.45874631625
O -0.569164618887 -1.029254893907 3.009065992132
O 0.587119970578 0.990501646517 3.031723956783
H -0.518138160497 -0.840516594065 0.472542525604
H -0.539466546366 0.955127479391 0.563931740423
H 1.013634169511 0.101941574562 0.516645718292
