11
Coordinates from XML
O 0.312872 1.04806 -3.40442
O -0.442178 -0.852792 -2.36828
C 0.126434 -0.191277 -3.27713
H 0.544537 -0.823295 -4.13215
C -0.688843 -0.92781 1.41738
C 0.055968 0.0680771 2.37431
O 0.590134 -0.440794 3.43381
O 0.0495454 1.30324 1.99054
H -0.630789 -1.95598 1.79499
H -1.74184 -0.622557 1.32521
H -0.241799 -0.870761 0.413868
