11
Coordinates from XML
O 0.224041 -0.223545 -4.13436
O 0.121637 0.156817 -1.87565
C -0.338363 0.0655233 -3.04484
H -1.4568 0.281858 -3.13208
C -0.260514 1.26597 1.63333
C 0.0144208 -0.100027 2.35492
O -1.00192 -0.677564 2.90294
O 1.24448 -0.498473 2.32111
H -1.32266 1.53427 1.68759
H 0.348081 2.05289 2.10329
H 0.0545497 1.19166 0.581972
