11
Coordinates from XML
O 0.74042 -0.546963 -1.98364
O -0.882534 0.223756 -3.40805
C 0.138956 0.316119 -2.67664
H 0.598506 1.36127 -2.63457
C -0.746618 -1.22502 2.29333
C 0.0566711 0.0961165 2.0258
O 0.0895447 0.513803 0.804618
O 0.604499 0.624307 3.07167
H -1.19541 -1.60818 1.36875
H -0.0702016 -1.97998 2.72109
H -1.53186 -1.02855 3.03827
