11
Coordinates from XML
O -0.0646771 0.193211 -1.75168
O -0.0626592 0.136125 -4.04377
C 0.124767 -0.322193 -2.88543
H 0.537038 -1.38737 -2.85844
C 0.841665 0.756909 3.12057
C -0.0672383 -0.0542754 2.13157
O -0.725914 0.632225 1.25883
O -0.056091 -1.33598 2.30498
H 0.795951 1.83183 2.90718
H 0.513193 0.566725 4.15325
H 1.87918 0.401234 3.03567
