11
Coordinates from XML
O 0.20469 0.560821 -3.36613
O 0.0623425 -0.356175 -1.26952
C -0.261118 -0.200363 -2.477
H -1.12452 -0.862558 -2.82536
C 1.35191 -0.423444 1.47658
C -0.108222 0.0278443 1.8324
O -1.0606 -0.768046 1.47694
O -0.195314 1.16201 2.44805
H 1.35208 -1.3971 0.971531
H 1.8173 0.333842 0.82819
H 1.95016 -0.478571 2.3981
