11
Coordinates from XML
O 0.150115 -0.437891 -1.97757
O 0.100524 0.200671 -4.17909
C -0.245524 0.232169 -2.96823
H -1.05688 0.999597 -2.72725
C -1.31021 -0.00192799 2.95167
C 0.105308 -0.00153168 2.27452
O 1.11635 -0.203821 3.0515
O 0.100703 0.206004 0.997857
H -1.23281 -0.198371 4.02801
H -1.79256 0.972517 2.78349
H -1.94107 -0.766757 2.47501
