11
Coordinates from XML
O -0.0133801 -0.162107 -1.86992
O -0.0168228 -0.18966 -4.16255
C 0.0296649 0.344356 -3.02255
H 0.127608 1.48257 -3.03628
C 0.613669 0.465156 3.53612
C -0.0446973 -0.0325411 2.20154
O 0.274545 0.608101 1.12707
O -0.845163 -1.04045 2.32935
H 1.28967 1.30908 3.352
H -0.176749 0.766232 4.23973
H 1.16708 -0.364684 4.00006
