11
Coordinates from XML
O 0.422529 0.549921 -1.96389
O -0.357136 -0.831063 -3.61977
C -0.0642049 0.275022 -3.0928
H -0.276177 1.18434 -3.75122
C -1.19822 -0.757682 2.53385
C 0.0965689 0.057612 2.1859
O 1.00948 0.106792 3.09749
O 0.103449 0.597549 1.01058
H -1.12951 -1.19892 3.53569
H -2.07186 -0.0912416 2.47825
H -1.34165 -1.54969 1.78399
