11
Coordinates from XML
O 0.931808 -0.653414 -2.1588
O -0.82752 0.809266 -2.30801
C -0.102135 -0.152768 -2.67575
H -0.439599 -0.657558 -3.64354
C -0.370987 -1.40619 1.86281
C 0.0297364 0.110315 1.81949
O 0.179973 0.699874 2.9582
O 0.164441 0.606632 0.632691
H -0.452451 -1.76354 2.89661
H -1.33151 -1.54208 1.34376
H 0.381658 -1.99678 1.31979
