11
Coordinates from XML
O -1.088657679804 -0.387165723831 -2.361156382657
O 1.079963966341 0.342332779041 -2.213359460571
C 0.008667852379 0.043804794268 -2.805078548075
H 0.037047617603 0.188655775431 -3.938003542142
C 0.893067970179 -0.446971212999 2.93573177621
C -0.065227133236 0.036408634488 1.791067126688
O 0.493886269111 0.578522085808 0.761346197369
O -1.324085479195 -0.163179750759 2.011058574589
H 1.942569078876 -0.26122515354 2.676632033015
H 0.639319730295 0.080270107552 3.86745806953
H 0.734737382818 -1.521031519256 3.113128856708
