11
Coordinates from XML
O 0.422771 0.698108 -1.97872
O -0.393255 -0.934602 -3.36627
C -0.0288633 0.231224 -3.05806
H -0.124265 0.99589 -3.90156
C 0.155971 -1.35167 1.6217
C -0.0136442 0.108012 2.17197
O -0.222598 1.03368 1.29659
O 0.078005 0.222039 3.4571
H 0.0517134 -1.37659 0.530099
H 1.14562 -1.73532 1.91134
H -0.597696 -2.00501 2.08569
