11
Coordinates from XML
O 0.644258 0.554967 -1.97991
O -0.586291 -0.8242 -3.33659
C -0.0569396 0.263519 -2.98505
H -0.244874 1.13464 -3.69998
C -1.19822 0.144516 2.92387
C 0.0961209 -0.0155067 2.05135
O 1.02467 -0.773691 2.5307
O 0.0884751 0.640009 0.936359
H -1.12971 -0.448408 3.84411
H -1.33783 1.20691 3.17349
H -2.07342 -0.172364 2.33755
