11
Coordinates from XML
O 0.171001 -0.539213 -3.96298
O -0.433462 0.303576 -1.91817
C 0.25663 0.230633 -2.96954
H 1.10524 0.99296 -3.033
C -1.41708 0.0706604 1.92729
C 0.112438 -0.00675793 2.26908
O 0.897704 -0.385486 1.31685
O 0.41881 0.319801 3.48253
H -1.60223 -0.203703 0.881569
H -1.97213 -0.605263 2.59477
H -1.78095 1.09121 2.11759
