11
Coordinates from XML
O 0.520156 0.817543 -2.13114
O -0.240294 -1.00374 -3.298
C -0.27387 0.182261 -2.87469
H -1.17918 0.784791 -3.22496
C 0.211554 0.174645 3.54012
C -0.0224089 -0.0118659 1.99975
O -1.23177 0.147181 1.5767
O 1.03566 -0.309769 1.31806
H -0.721634 0.439996 4.05182
H 0.616067 -0.758085 3.96068
H 0.964336 0.960508 3.701
