11
Coordinates from XML
O -1.077348744742 0.417317320293 -2.566104768617
O 1.151227979489 -0.072436239151 -2.341340280249
C -0.072525450785 -0.337505651259 -2.479512450596
H -0.312116790587 -1.45317468556 -2.535946977211
C -1.333716213249 0.188503507457 1.327371509235
C 0.10703777443 -0.012417013445 1.915675540598
O 1.094172755115 0.253037402267 1.127057466909
O 0.14474331199 -0.428642939232 3.139722258255
H -1.29072841973 0.555982704648 0.29480289557
H -1.875522103421 -0.768467842486 1.361100988449
H -1.88724865921 0.901124348814 1.956591032351
