11
Coordinates from XML
O -1.38112 -2.6992 1.2406
O -0.809121 -2.9862 -0.866401
C -0.942121 -2.2412 0.202599
H -0.759121 -1.1992 0.503599
C 1.25676 3.28752 -0.561182
C 0.764759 1.93052 -0.116182
O 1.58176 1.15752 0.340818
O -0.414241 1.68452 -0.263182
H 2.15276 3.57152 -0.00518248
H 1.49676 3.26452 -1.62618
H 0.488759 4.04452 -0.390182
