11
Coordinates from XML
O -1.39099 -2.70914 1.24128
O -0.818987 -2.99614 -0.865715
C -0.951987 -2.25114 0.203285
H -0.768987 -1.20914 0.504285
C 1.26428 3.2951 -0.561706
C 0.772283 1.9381 -0.116706
O 1.58928 1.1651 0.340294
O -0.406717 1.6921 -0.263706
H 2.16028 3.5791 -0.00570564
H 1.50428 3.2721 -1.62671
H 0.496283 4.0521 -0.390706
