11
Coordinates from XML
O -1.390987429683 -2.709135806553 1.241284823635
O -0.818987429683 -2.996135806553 -0.865715176365
C -0.951987429683 -2.251135806553 0.203284823635
H -0.768987429683 -1.209135806553 0.504284823635
C 1.264282511038 3.295097807612 -0.561705639935
C 0.772282511038 1.938097807612 -0.116705639935
O 1.589282511038 1.165097807612 0.340294360065
O -0.406717488962 1.692097807612 -0.263705639935
H 2.160282511038 3.579097807612 -0.005705639935
H 1.504282511038 3.272097807612 -1.626705639935
H 0.496282511038 4.052097807612 -0.390705639935
