11
Coordinates from XML
O -1.40085 -2.71907 1.24197
O -0.828854 -3.00607 -0.865029
C -0.961854 -2.26107 0.203971
H -0.778854 -1.21907 0.504971
C 1.27181 3.30267 -0.562229
C 0.779806 1.94567 -0.117229
O 1.59681 1.17267 0.339771
O -0.399194 1.69967 -0.264229
H 2.16781 3.58667 -0.0062288
H 1.51181 3.27967 -1.62723
H 0.503806 4.05967 -0.391229
