11
Coordinates from XML
O -1.410720535318 -2.729002490134 1.242657033442
O -0.838720535318 -3.016002490134 -0.864342966558
C -0.971720535318 -2.271002490134 0.204657033442
H -0.788720535318 -1.229002490134 0.505657033442
C 1.279329007333 3.310246157114 -0.562751950139
C 0.787329007333 1.953246157114 -0.117751950139
O 1.604329007333 1.180246157114 0.339248049861
O -0.391670992667 1.707246157114 -0.264751950139
H 2.175329007333 3.594246157114 -0.006751950139
H 1.519329007333 3.287246157114 -1.627751950139
H 0.511329007333 4.067246157114 -0.391751950139
