11
Coordinates from XML
O -1.415653811727 -2.733969161029 1.243000085894
O -0.843653811727 -3.020969161029 -0.863999914106
C -0.976653811727 -2.275969161029 0.205000085894
H -0.793653811727 -1.233969161029 0.506000085894
C 1.283090631407 3.314033244489 -0.56301352769
C 0.791090631407 1.957033244489 -0.11801352769
O 1.608090631407 1.184033244489 0.33898647231
O -0.387909368593 1.711033244489 -0.26501352769
H 2.179090631407 3.598033244489 -0.00701352769
H 1.523090631407 3.291033244489 -1.62801352769
H 0.515090631407 4.071033244489 -0.39201352769
