11
Coordinates from XML
O -1.41565 -2.73397 1.243
O -0.843654 -3.02097 -0.864
C -0.976654 -2.27597 0.205
H -0.793654 -1.23397 0.506
C 1.28309 3.31403 -0.563014
C 0.791091 1.95703 -0.118014
O 1.60809 1.18403 0.338986
O -0.387909 1.71103 -0.265014
H 2.17909 3.59803 -0.00701353
H 1.52309 3.29103 -1.62801
H 0.515091 4.07103 -0.392014
