11
Coordinates from XML
O -1.42059 -2.73894 1.24334
O -0.848587 -3.02594 -0.863657
C -0.981587 -2.28094 0.205343
H -0.798587 -1.23894 0.506343
C 1.28685 3.31782 -0.563275
C 0.794852 1.96082 -0.118275
O 1.61185 1.18782 0.338725
O -0.384148 1.71482 -0.265275
H 2.18285 3.60182 -0.00727511
H 1.52685 3.29482 -1.62828
H 0.518852 4.07482 -0.392275
