11
Coordinates from XML
O -1.420587088136 -2.738935831925 1.243343138346
O -0.848587088136 -3.025935831925 -0.863656861654
C -0.981587088136 -2.280935831925 0.205343138346
H -0.798587088136 -1.238935831925 0.506343138346
C 1.286852255481 3.317820331865 -0.563275105241
C 0.794852255481 1.960820331865 -0.118275105241
O 1.611852255481 1.187820331865 0.338724894759
O -0.384147744519 1.714820331865 -0.265275105241
H 2.182852255481 3.601820331865 -0.007275105241
H 1.526852255481 3.294820331865 -1.628275105241
H 0.518852255481 4.074820331865 -0.392275105241
