11
Coordinates from XML
O -1.430453640954 -2.748869173716 1.24402924325
O -0.858453640954 -3.035869173716 -0.86297075675
C -0.991453640954 -2.290869173716 0.20602924325
H -0.808453640954 -1.248869173716 0.50702924325
C 1.294375503629 3.325394506615 -0.563798260343
C 0.802375503629 1.968394506615 -0.118798260343
O 1.619375503629 1.195394506615 0.338201739657
O -0.376624496371 1.722394506615 -0.265798260343
H 2.190375503629 3.609394506615 -0.007798260343
H 1.534375503629 3.302394506615 -1.628798260343
H 0.526375503629 4.082394506615 -0.392798260343
