11
Coordinates from XML
O -1.435386917363 -2.753835844611 1.244372295701
O -0.863386917363 -3.040835844611 -0.862627704299
C -0.996386917363 -2.295835844611 0.206372295701
H -0.813386917363 -1.253835844611 0.507372295701
C 1.298137127703 3.329181593991 -0.564059837894
C 0.806137127703 1.972181593991 -0.119059837894
O 1.623137127703 1.199181593991 0.337940162106
O -0.372862872297 1.726181593991 -0.266059837894
H 2.194137127703 3.613181593991 -0.008059837894
H 1.538137127703 3.306181593991 -1.629059837894
H 0.530137127703 4.086181593991 -0.393059837894
