11
Coordinates from XML
O -1.43539 -2.75384 1.24437
O -0.863387 -3.04084 -0.862628
C -0.996387 -2.29584 0.206372
H -0.813387 -1.25384 0.507372
C 1.29814 3.32918 -0.56406
C 0.806137 1.97218 -0.11906
O 1.62314 1.19918 0.33794
O -0.372863 1.72618 -0.26606
H 2.19414 3.61318 -0.00805984
H 1.53814 3.30618 -1.62906
H 0.530137 4.08618 -0.39306
