11
Coordinates from XML
O -1.44032 -2.7588 1.24472
O -0.86832 -3.0458 -0.862285
C -1.00132 -2.3008 0.206715
H -0.81832 -1.2588 0.507715
C 1.3019 3.33297 -0.564321
C 0.809899 1.97597 -0.119321
O 1.6269 1.20297 0.337679
O -0.369101 1.72997 -0.266321
H 2.1979 3.61697 -0.00832142
H 1.5419 3.30997 -1.62932
H 0.533899 4.08997 -0.393321
