11
Coordinates from XML
O -1.45512 -2.7737 1.24574
O -0.88312 -3.0607 -0.861255
C -1.01612 -2.3157 0.207745
H -0.83312 -1.2737 0.508745
C 1.31318 3.34433 -0.565106
C 0.821184 1.98733 -0.120106
O 1.63818 1.21433 0.336894
O -0.357816 1.74133 -0.267106
H 2.20918 3.62833 -0.00910615
H 1.55318 3.32133 -1.63011
H 0.545184 4.10133 -0.394106
