11
Coordinates from XML
O -1.469919852225 -2.788602540878 1.246773662864
O -0.897919852225 -3.075602540878 -0.860226337136
C -1.030919852225 -2.330602540878 0.208773662864
H -0.847919852225 -1.288602540878 0.509773662864
C 1.324468496221 3.355691205618 -0.565890880751
C 0.832468496221 1.998691205618 -0.120890880751
O 1.649468496221 1.225691205618 0.336109119249
O -0.346531503779 1.752691205618 -0.267890880751
H 2.220468496221 3.639691205618 -0.009890880751
H 1.564468496221 3.332691205618 -1.630890880751
H 0.556468496221 4.112691205618 -0.394890880751
