11
Coordinates from XML
O -1.47979 -2.79854 1.24746
O -0.907786 -3.08554 -0.85954
C -1.04079 -2.34054 0.20946
H -0.857786 -1.29854 0.51046
C 1.33199 3.36327 -0.566414
C 0.839992 2.00627 -0.121414
O 1.65699 1.23327 0.335586
O -0.339008 1.76027 -0.268414
H 2.22799 3.64727 -0.010414
H 1.57199 3.34027 -1.63141
H 0.563992 4.12027 -0.395414
