11
Coordinates from XML
O -1.484719681452 -2.803502553564 1.24780282022
O -0.912719681452 -3.090502553564 -0.85919717978
C -1.045719681452 -2.345502553564 0.20980282022
H -0.862719681452 -1.303502553564 0.51080282022
C 1.335753368442 3.367052467745 -0.566675613404
C 0.843753368442 2.010052467745 -0.121675613404
O 1.660753368442 1.237052467745 0.335324386596
O -0.335246631558 1.764052467745 -0.268675613404
H 2.231753368442 3.651052467745 -0.010675613404
H 1.575753368442 3.344052467745 -1.631675613404
H 0.567753368442 4.124052467745 -0.395675613404
