11
Coordinates from XML
O -1.48965 -2.80847 1.24815
O -0.917653 -3.09547 -0.858854
C -1.05065 -2.35047 0.210146
H -0.867653 -1.30847 0.511146
C 1.33951 3.37084 -0.566937
C 0.847515 2.01384 -0.121937
O 1.66451 1.24084 0.335063
O -0.331485 1.76784 -0.268937
H 2.23551 3.65484 -0.0109372
H 1.57951 3.34784 -1.63194
H 0.571515 4.12784 -0.395937
