11
Coordinates from XML
O -1.49458623427 -2.813435895355 1.248488925123
O -0.92258623427 -3.100435895355 -0.858511074877
C -1.05558623427 -2.355435895355 0.210488925123
H -0.87258623427 -1.313435895355 0.511488925123
C 1.34327661659 3.374626642495 -0.567198768506
C 0.85127661659 2.017626642495 -0.122198768506
O 1.66827661659 1.244626642495 0.334801231494
O -0.32772338341 1.771626642495 -0.269198768506
H 2.23927661659 3.658626642495 -0.011198768506
H 1.58327661659 3.351626642495 -1.632198768506
H 0.57527661659 4.131626642495 -0.396198768506
