11
Coordinates from XML
O -1.50445 -2.82337 1.24918
O -0.932453 -3.11037 -0.857825
C -1.06545 -2.36537 0.211175
H -0.882453 -1.32337 0.512175
C 1.3508 3.3822 -0.567722
C 0.8588 2.0252 -0.122722
O 1.6758 1.2522 0.334278
O -0.3202 1.7792 -0.269722
H 2.2468 3.6662 -0.0117219
H 1.5908 3.3592 -1.63272
H 0.5828 4.1392 -0.396722
