11
Coordinates from XML
O -1.504452787087 -2.823369237146 1.249175030027
O -0.932452787087 -3.110369237146 -0.857824969973
C -1.065452787087 -2.365369237146 0.211175030027
H -0.882452787087 -1.323369237146 0.512175030027
C 1.350799864738 3.382200817246 -0.567721923608
C 0.858799864738 2.025200817246 -0.122721923608
O 1.675799864738 1.252200817246 0.334278076392
O -0.320200135262 1.779200817246 -0.269721923608
H 2.246799864738 3.666200817246 -0.011721923608
H 1.590799864738 3.359200817246 -1.632721923608
H 0.582799864738 4.139200817246 -0.396721923608
