11
Coordinates from XML
O -1.519252616314 -2.838269249832 1.250204187382
O -0.947252616314 -3.125269249832 -0.856795812618
C -1.080252616314 -2.380269249832 0.212204187382
H -0.897252616314 -1.338269249832 0.513204187382
C 1.36208473696 3.393562079372 -0.568506656261
C 0.87008473696 2.036562079372 -0.123506656261
O 1.68708473696 1.263562079372 0.333493343739
O -0.30891526304 1.790562079372 -0.270506656261
H 2.25808473696 3.677562079372 -0.012506656261
H 1.60208473696 3.370562079372 -1.633506656261
H 0.59408473696 4.150562079372 -0.397506656261
