11
Coordinates from XML
O -1.51925 -2.83827 1.2502
O -0.947253 -3.12527 -0.856796
C -1.08025 -2.38027 0.212204
H -0.897253 -1.33827 0.513204
C 1.36208 3.39356 -0.568507
C 0.870085 2.03656 -0.123507
O 1.68708 1.26356 0.333493
O -0.308915 1.79056 -0.270507
H 2.25808 3.67756 -0.0125067
H 1.60208 3.37056 -1.63351
H 0.594085 4.15056 -0.397507
