11
Coordinates from XML
O -1.53405 -2.85317 1.25123
O -0.962052 -3.14017 -0.855767
C -1.09505 -2.39517 0.213233
H -0.912052 -1.35317 0.514233
C 1.37337 3.40492 -0.569291
C 0.88137 2.04792 -0.124291
O 1.69837 1.27492 0.332709
O -0.29763 1.80192 -0.271291
H 2.26937 3.68892 -0.0132914
H 1.61337 3.38192 -1.63429
H 0.60537 4.16192 -0.398291
