12
Coordinates from XML
H -0.319198528534 -0.119383014129 -2.389225079661
N 8.9283987e-05 -5.7360726e-05 -3.354829906293
H -0.202492368655 -0.849961368384 -3.888783744915
H -0.48697630796 0.794186074282 -3.779674189636
H 1.008993160645 0.174917212433 -3.361542313614
C 1.130078528415 -0.74149648266 0.486461534574
C -0.089241005647 0.053977825549 1.071887226598
O -0.727085479718 -0.50323517185 2.04630401909
O -0.322863733949 1.192404891449 0.504119375876
H 1.279239196601 -1.686406785602 1.023101513653
H 0.953175141569 -0.941869619832 -0.580797226284
H 2.036401041796 -0.122142209441 0.558041046465
