12
Coordinates from XML
H 0.709330557971 0.709112623272 -3.316491700942
N 1.8483749e-05 0.000106533721 -3.523283253819
H 0.438860714168 -0.924718558974 -3.547755579477
H -0.721098757532 0.016616948495 -2.796464486497
H -0.426949310855 0.199484360966 -4.432401053872
C 0.287679331976 1.424471318831 1.149331010874
C -0.022233873426 -0.112076802028 1.077106226692
O 0.044915965155 -0.766770249824 2.187821028814
O -0.312018793368 -0.556620454522 -0.102453749345
H 0.509290320023 1.734516247627 2.177848178835
H 1.144351169591 1.652296647599 0.497645160779
H -0.575539397531 1.987925675297 0.765252303125
