12
Coordinates from XML
H -0.329643 0.247296 -4.0318
N 8.72971e-05 6.68717e-05 -3.09439
H 0.84537 -0.572876 -3.16999
H 0.212349 0.854184 -2.57096
H -0.727759 -0.528313 -2.6049
C 1.10741 0.877015 0.596857
C -0.0897977 -0.0670462 0.967925
O -1.13535 0.00391901 0.213864
O 0.10672 -0.818715 2.00201
H 0.878678 1.4724 -0.295492
H 1.32006 1.54333 1.44614
H 2.00831 0.270302 0.422425
