12
Coordinates from XML
H 0.901934 0.437792 -2.93465
N -0.00011212 -5.21607e-06 -2.72675
H -0.728509 0.71884 -2.69235
H -0.226031 -0.680135 -3.45814
H 0.052245 -0.476475 -1.82189
C -1.38346 -0.0270798 0.383322
C 0.109094 -0.00376302 0.867047
O 0.732174 -1.13451 0.869779
O 0.552995 1.16017 1.21514
H -1.68766 -1.03936 0.0903429
H -2.03248 0.338419 1.19305
H -1.50087 0.66094 -0.466965
