12
Coordinates from XML
H -0.925663447717 0.348491491947 -4.002541585177
N 9.4601107e-05 -2.8240488e-05 -3.737811475173
H -0.062653977701 -0.99629997491 -3.50980249059
H 0.650158621306 0.131289793759 -4.518016918325
H 0.338446802478 0.516439762382 -2.92091075915
C 1.150747632973 -0.348163970374 0.322669301893
C -0.087645969436 0.032665035791 1.207877354063
O 0.001520709145 1.129492169069 1.883036243657
O -1.070767384783 -0.806624397617 1.162914863884
H 1.937620575012 0.412395556552 0.39660868093
H 1.542245778108 -1.32361173105 0.647809784688
H 0.830082521414 -0.455866583586 -0.724096132135
