12
Coordinates from XML
H -0.738892 0.531146 -3.65607
N -7.67971e-05 7.40575e-05 -3.18629
H -0.409785 -0.812011 -2.71604
H 0.685588 -0.316026 -3.87802
H 0.462711 0.597239 -2.49508
C -1.04423 0.992563 0.769876
C 0.0830572 -0.0778295 0.983711
O 0.633262 -0.556619 -0.0815849
O 0.336625 -0.365654 2.21895
H -1.19556 1.19874 -0.296743
H -1.98085 0.626426 1.21618
H -0.770432 1.91902 1.29604
