12
Coordinates from XML
H 0.619262 -0.814393 -3.65622
N -2.99311e-06 0.000105729 -3.61525
H -0.910208 -0.281698 -3.24029
H 0.413564 0.713066 -3.00763
H -0.12257 0.383368 -4.55686
C -0.00108886 1.30289 0.457004
C 0.00385099 -0.100022 1.1599
O 0.809476 -0.241777 2.15875
O -0.808666 -0.968911 0.652159
H 0.697301 1.9923 0.946943
H 0.2761 1.17923 -0.600522
H -1.01915 1.71885 0.482721
