12
Coordinates from XML
H -0.529248344051 0.192605788787 -2.637513024839
N -4.0813128e-05 -7.8439327e-05 -3.492725382941
H 0.459223399155 0.858143130585 -3.81055390629
H 0.707461181841 -0.715456928102 -3.302402670391
H -0.637651169878 -0.335586931758 -4.220348413411
C -0.557751757394 -1.004763496509 0.174871993578
C 0.040003805211 0.082990133026 1.134936090845
O -0.359503438861 1.296817658709 0.950988590479
O 0.878166118809 -0.363707864037 2.012945732791
H -1.269646740438 -0.559872267246 -0.531077140514
H 0.261002818187 -1.49066100512 -0.376517180324
H -1.057391019627 -1.781813981425 0.772113144258
