12
Coordinates from XML
H -0.50524 0.672501 -3.52524
N -8.93572e-05 3.37115e-05 -2.94112
H -0.1625 0.216173 -1.95351
H -0.33482 -0.946421 -3.14293
H 1.00215 0.0579476 -3.14288
C -1.183 0.489864 1.58997
C 0.0896122 -0.0432652 0.842664
O -0.00643903 -1.21154 0.301611
O 1.10584 0.756793 0.85427
H -2.00811 -0.23011 1.5273
H -0.931423 0.678945 2.64422
H -1.48838 1.45001 1.14838
