12
Coordinates from XML
H 0.345919 0.921408 -3.11803
N -7.86569e-05 4.93732e-05 -3.4008
H 0.748685 -0.691188 -3.30067
H -0.790789 -0.264736 -2.80649
H -0.304096 0.0348027 -4.378
C -0.98499 0.699505 0.228311
C 0.073999 -0.0535897 1.10788
O -0.0867707 0.0128315 2.38716
O 1.00227 -0.662649 0.444314
H -1.74831 1.17869 0.853458
H -0.474123 1.45729 -0.384274
H -1.45884 -0.0146747 -0.461296
