12
Coordinates from XML
H -0.582605 -0.733466 -3.92169
N -5.02708e-05 -8.55529e-06 -3.50787
H -0.513602 0.885847 -3.51047
H 0.23632 -0.254705 -2.54464
H 0.85963 0.102218 -4.05472
C -0.697842 -0.160884 2.33863
C 0.0600726 0.0118744 0.975563
O 1.34907 0.0555276 1.03393
O -0.701242 0.0942041 -0.0668283
H 0.00726253 -0.239094 3.17517
H -1.36659 0.699051 2.49284
H -1.32737 -1.06186 2.29295
