12
Coordinates from XML
H 0.748365434018 0.656087930084 -2.516129096978
N 1.184191e-05 9.5145024e-05 -2.757409778195
H -0.250243737438 0.11554113376 -3.743577724688
H 0.321701221655 -0.958701570649 -2.596870091596
H -0.81970246919 0.187517148698 -2.173038636953
C 0.196944429217 1.276423246272 0.172488483617
C -0.010095891147 -0.102069041851 0.892999454651
O 0.863335080987 -1.019718220739 0.644286156928
O -1.046901979342 -0.166010066519 1.663649035662
H 1.09972637386 1.264589400781 -0.450353047763
H -0.683444124013 1.495775978556 -0.449834454403
H 0.271999120874 2.073402054312 0.927031665506
