12
Coordinates from XML
H 0.0258158 0.501474 -3.121
N 7.26028e-05 8.27595e-05 -4.01348
H 0.713795 -0.73414 -4.01318
H -0.924 -0.42221 -4.14118
H 0.184682 0.655256 -4.77847
C 0.936347 1.1053 1.36332
C -0.0723319 -0.088314 1.22157
O -0.144208 -0.904241 2.21953
O -0.725651 -0.122586 0.105794
H 1.44234 1.08107 2.33619
H 1.67968 1.04951 0.554113
H 0.394288 2.0553 1.2458
