12
Coordinates from XML
H -1.596835098224 1.957253266253 -2.545105041601
N -1.152835098224 1.049253266253 -2.513105041601
H -1.060835098224 0.525253266253 -3.374105041601
H -0.213835098224 1.127253266253 -2.044105041601
H -1.615835098224 0.451253266253 -1.782105041601
C 0.846098660938 -0.860789358729 1.988582569266
C 0.326098660938 -0.294789358729 0.707582569266
O 1.097098660938 0.416210641271 -0.007417430734
O -0.869901339062 -0.533789358729 0.361582569266
H 1.597098660938 -1.626789358729 1.775582569266
H 1.305098660938 -0.071789358729 2.590582569266
H 0.040098660938 -1.315789358729 2.573582569266
