12
Coordinates from XML
H -1.59684 1.95725 -2.54511
N -1.15284 1.04925 -2.51311
H -1.06084 0.525253 -3.37411
H -0.213835 1.12725 -2.04411
H -1.61584 0.451253 -1.78211
C 0.846099 -0.860789 1.98858
C 0.326099 -0.294789 0.707583
O 1.0971 0.416211 -0.00741743
O -0.869901 -0.533789 0.361583
H 1.5971 -1.62679 1.77558
H 1.3051 -0.0717894 2.59058
H 0.0400987 -1.31579 2.57358
