12
Coordinates from XML
H -1.601748654482 1.959918349759 -2.552738821024
N -1.157748654482 1.051918349759 -2.520738821024
H -1.065748654482 0.527918349759 -3.381738821024
H -0.218748654482 1.129918349759 -2.051738821024
H -1.620748654482 0.453918349759 -1.789738821024
C 0.847600236098 -0.861603804109 1.9909154404
C 0.327600236098 -0.295603804109 0.7099154404
O 1.098600236098 0.415396195891 -0.0050845596
O -0.868399763902 -0.534603804109 0.3639154404
H 1.598600236098 -1.627603804109 1.7779154404
H 1.306600236098 -0.072603804109 2.5929154404
H 0.041600236098 -1.316603804109 2.5759154404
