12
Coordinates from XML
H -1.62632 1.97324 -2.59091
N -1.18232 1.06524 -2.55891
H -1.09032 0.541244 -3.41991
H -0.243316 1.14324 -2.08991
H -1.64532 0.467244 -1.82791
C 0.855108 -0.865676 2.00258
C 0.335108 -0.299676 0.72158
O 1.10611 0.411324 0.0065798
O -0.860892 -0.538676 0.37558
H 1.60611 -1.63168 1.78958
H 1.31411 -0.076676 2.60458
H 0.0491081 -1.32068 2.58758
