12
Coordinates from XML
H -1.63123 1.97591 -2.59854
N -1.18723 1.06791 -2.56654
H -1.09523 0.543909 -3.42754
H -0.24823 1.14591 -2.09754
H -1.65023 0.469909 -1.83554
C 0.85661 -0.86649 2.00491
C 0.33661 -0.30049 0.723913
O 1.10761 0.41051 0.00891267
O -0.85939 -0.53949 0.377913
H 1.60761 -1.63249 1.79191
H 1.31561 -0.0774905 2.60691
H 0.0506097 -1.32149 2.58991
