12
Coordinates from XML
H -1.63614 1.97857 -2.60618
N -1.19214 1.07057 -2.57418
H -1.10014 0.546574 -3.43518
H -0.253144 1.14857 -2.10518
H -1.65514 0.472574 -1.84318
C 0.858111 -0.867305 2.00725
C 0.338111 -0.301305 0.726246
O 1.10911 0.409695 0.0112455
O -0.857889 -0.540305 0.380246
H 1.60911 -1.6333 1.79425
H 1.31711 -0.0783049 2.60925
H 0.0521113 -1.3223 2.59225
