12
Coordinates from XML
H -1.641057104548 1.981239017812 -2.613809056413
N -1.197057104548 1.073239017812 -2.581809056413
H -1.105057104548 0.549239017812 -3.442809056413
H -0.258057104548 1.151239017812 -2.112809056413
H -1.660057104548 0.475239017812 -1.850809056413
C 0.859612837376 -0.868119367146 2.009578409468
C 0.339612837376 -0.302119367146 0.728578409468
O 1.110612837376 0.408880632854 0.013578409468
O -0.856387162624 -0.541119367146 0.382578409468
H 1.610612837376 -1.634119367146 1.796578409468
H 1.318612837376 -0.079119367146 2.611578409468
H 0.053612837376 -1.323119367146 2.594578409468
