12
Coordinates from XML
H -1.6558 1.98923 -2.63671
N -1.2118 1.08123 -2.60471
H -1.1198 0.557234 -3.46571
H -0.272798 1.15923 -2.13571
H -1.6748 0.483234 -1.87371
C 0.864118 -0.870563 2.01658
C 0.344118 -0.304563 0.735577
O 1.11512 0.406437 0.020577
O -0.851882 -0.543563 0.389577
H 1.61512 -1.63656 1.80358
H 1.32312 -0.0815627 2.61858
H 0.0581176 -1.32556 2.60158
