12
Coordinates from XML
H -1.660711329581 1.991899351839 -2.644344174108
N -1.216711329581 1.083899351839 -2.612344174108
H -1.124711329581 0.559899351839 -3.473344174108
H -0.277711329581 1.161899351839 -2.143344174108
H -1.679711329581 0.485899351839 -1.881344174108
C 0.865619138015 -0.871377148665 2.018909894002
C 0.345619138015 -0.305377148665 0.737909894002
O 1.116619138015 0.405622851335 0.022909894002
O -0.850380861985 -0.544377148665 0.391909894002
H 1.616619138015 -1.637377148665 1.805909894002
H 1.324619138015 -0.082377148665 2.620909894002
H 0.059619138015 -1.326377148665 2.603909894002
