12
Coordinates from XML
H -1.670538442097 1.997229518852 -2.659611732955
N -1.226538442097 1.089229518852 -2.627611732955
H -1.134538442097 0.565229518852 -3.488611732955
H -0.287538442097 1.167229518852 -2.158611732955
H -1.689538442097 0.491229518852 -1.896611732955
C 0.868622288335 -0.873006039424 2.023575636269
C 0.348622288335 -0.307006039424 0.742575636269
O 1.119622288335 0.403993960576 0.027575636269
O -0.847377711665 -0.546006039424 0.396575636269
H 1.619622288335 -1.639006039424 1.810575636269
H 1.327622288335 -0.084006039424 2.625575636269
H 0.062622288335 -1.328006039424 2.608575636269
