12
Coordinates from XML
H -1.67545 1.99989 -2.66725
N -1.23145 1.09189 -2.63525
H -1.13945 0.567895 -3.49625
H -0.292452 1.16989 -2.16625
H -1.69445 0.493895 -1.90425
C 0.870124 -0.87382 2.02591
C 0.350124 -0.30782 0.744909
O 1.12112 0.40318 0.0299085
O -0.845876 -0.54682 0.398909
H 1.62112 -1.63982 1.81291
H 1.32912 -0.0848205 2.62791
H 0.0641239 -1.32882 2.61091
