12
Coordinates from XML
H -1.675451998355 1.999894602359 -2.667245512379
N -1.231451998355 1.091894602359 -2.635245512379
H -1.139451998355 0.567894602359 -3.496245512379
H -0.292451998355 1.169894602359 -2.166245512379
H -1.694451998355 0.493894602359 -1.904245512379
C 0.870123863494 -0.873820484804 2.025908507402
C 0.350123863494 -0.307820484804 0.744908507402
O 1.121123863494 0.403179515196 0.029908507402
O -0.845876136506 -0.546820484804 0.398908507402
H 1.621123863494 -1.639820484804 1.812908507402
H 1.329123863494 -0.084820484804 2.627908507402
H 0.064123863494 -1.328820484804 2.610908507402
