12
Coordinates from XML
H -1.68037 2.00256 -2.67488
N -1.23637 1.09456 -2.64288
H -1.14437 0.57056 -3.50388
H -0.297366 1.17256 -2.17388
H -1.69937 0.49656 -1.91188
C 0.871625 -0.874635 2.02824
C 0.351625 -0.308635 0.747241
O 1.12263 0.402365 0.0322414
O -0.844375 -0.547635 0.401241
H 1.62263 -1.64063 1.81524
H 1.33063 -0.0856349 2.63024
H 0.0656254 -1.32963 2.61324
