12
Coordinates from XML
H -1.68528 2.00522 -2.68251
N -1.24128 1.09722 -2.65051
H -1.14928 0.573225 -3.51151
H -0.302279 1.17522 -2.18151
H -1.70428 0.499225 -1.91951
C 0.873127 -0.875449 2.03057
C 0.353127 -0.309449 0.749574
O 1.12413 0.401551 0.0345742
O -0.842873 -0.548449 0.403574
H 1.62413 -1.64145 1.81757
H 1.33213 -0.0864494 2.63257
H 0.067127 -1.33045 2.61557
