12
Coordinates from XML
H -1.685279110872 2.005224769372 -2.682513071226
N -1.241279110872 1.097224769372 -2.650513071226
H -1.149279110872 0.573224769372 -3.511513071226
H -0.302279110872 1.175224769372 -2.181513071226
H -1.704279110872 0.499224769372 -1.919513071226
C 0.873127013814 -0.875449375563 2.030574249669
C 0.353127013814 -0.309449375563 0.749574249669
O 1.124127013814 0.401550624437 0.034574249669
O -0.842872986186 -0.548449375563 0.403574249669
H 1.624127013814 -1.641449375563 1.817574249669
H 1.332127013814 -0.086449375563 2.632574249669
H 0.067127013814 -1.330449375563 2.615574249669
