12
Coordinates from XML
H -1.69019 2.00789 -2.69015
N -1.24619 1.09989 -2.65815
H -1.15419 0.57589 -3.51915
H -0.307193 1.17789 -2.18915
H -1.70919 0.50189 -1.92715
C 0.874629 -0.876264 2.03291
C 0.354629 -0.310264 0.751907
O 1.12563 0.400736 0.0369071
O -0.841371 -0.549264 0.405907
H 1.62563 -1.64226 1.81991
H 1.33363 -0.0872638 2.63491
H 0.0686286 -1.33126 2.61791
