12
Coordinates from XML
H -1.69511 2.01055 -2.69778
N -1.25111 1.10255 -2.66578
H -1.15911 0.578555 -3.52678
H -0.312106 1.18055 -2.19678
H -1.71411 0.504555 -1.93478
C 0.87613 -0.877078 2.03524
C 0.35613 -0.311078 0.75424
O 1.12713 0.399922 0.03924
O -0.83987 -0.550078 0.40824
H 1.62713 -1.64308 1.82224
H 1.33513 -0.0880783 2.63724
H 0.0701302 -1.33208 2.62024
