12
Coordinates from XML
H -1.704933335905 2.015885103399 -2.713048188921
N -1.260933335905 1.107885103399 -2.681048188921
H -1.168933335905 0.583885103399 -3.542048188921
H -0.321933335905 1.185885103399 -2.212048188921
H -1.723933335905 0.509885103399 -1.950048188921
C 0.879133314453 -0.878707157082 2.039905734203
C 0.359133314453 -0.312707157082 0.758905734203
O 1.130133314453 0.398292842918 0.043905734203
O -0.836866685547 -0.551707157082 0.412905734203
H 1.630133314453 -1.644707157082 1.826905734203
H 1.338133314453 -0.089707157082 2.641905734203
H 0.073133314453 -1.333707157082 2.624905734203
