12
Coordinates from XML
H -1.709846892163 2.018550186906 -2.720681968345
N -1.265846892163 1.110550186906 -2.688681968345
H -1.173846892163 0.586550186906 -3.549681968345
H -0.326846892163 1.188550186906 -2.219681968345
H -1.728846892163 0.512550186906 -1.957681968345
C 0.880634889613 -0.879521602462 2.042238605337
C 0.360634889613 -0.313521602462 0.761238605337
O 1.131634889613 0.397478397538 0.046238605337
O -0.835365110387 -0.552521602462 0.415238605337
H 1.631634889613 -1.645521602462 1.829238605337
H 1.339634889613 -0.090521602462 2.644238605337
H 0.074634889613 -1.334521602462 2.627238605337
