12
Coordinates from XML
H -1.70985 2.01855 -2.72068
N -1.26585 1.11055 -2.68868
H -1.17385 0.58655 -3.54968
H -0.326847 1.18855 -2.21968
H -1.72885 0.51255 -1.95768
C 0.880635 -0.879522 2.04224
C 0.360635 -0.313522 0.761239
O 1.13163 0.397478 0.0462386
O -0.835365 -0.552522 0.415239
H 1.63163 -1.64552 1.82924
H 1.33963 -0.0905216 2.64424
H 0.0746349 -1.33452 2.62724
