12
Coordinates from XML
H -1.71476 2.02122 -2.72832
N -1.27076 1.11322 -2.69632
H -1.17876 0.589215 -3.55732
H -0.33176 1.19122 -2.22732
H -1.73376 0.515215 -1.96532
C 0.882136 -0.880336 2.04457
C 0.362136 -0.314336 0.763571
O 1.13314 0.396664 0.0485715
O -0.833864 -0.553336 0.417571
H 1.63314 -1.64634 1.83157
H 1.34114 -0.091336 2.64657
H 0.0761365 -1.33534 2.62957
