12
Coordinates from XML
H 0.931582 0.425054 -3.5492
N -6.14812e-05 8.9015e-05 -3.55389
H -0.711249 0.736716 -3.54512
H -0.110474 -0.570954 -4.39666
H -0.110014 -0.590418 -2.72458
C -0.729219 1.17349 1.54249
C 0.0584147 -0.089201 1.04501
O 0.474959 -0.0646835 -0.176759
O 0.202231 -1.02587 1.9253
H -0.799952 1.93112 0.752508
H -1.73782 0.869487 1.85997
H -0.221557 1.59523 2.42258
