12
Coordinates from XML
H -0.869432 0.538284 -3.66763
N -7.94749e-05 -3.91838e-05 -3.7225
H 0.798618 0.627265 -3.5919
H 0.00485513 -0.715913 -2.99034
H 0.0655563 -0.44974 -4.64011
C -1.09255 -0.464633 0.296382
C 0.0896914 0.0347134 1.19926
O 1.28363 -0.2169 0.777338
O -0.268976 0.648546 2.27978
H -0.717045 -0.960663 -0.606965
H -1.7189 -1.16193 0.872535
H -1.72495 0.391678 0.018979
