12
Coordinates from XML
H -0.469689 0.391365 -3.54818
N -9.83284e-05 -2.29217e-05 -2.72667
H -0.657782 -0.585818 -2.20438
H 0.797641 -0.567195 -3.02746
H 0.329391 0.761593 -2.12673
C -1.30167 -0.258837 1.42978
C 0.102349 0.0145001 0.784597
O 0.720661 -1.00745 0.294577
O 0.488701 1.24842 0.818164
H -1.57179 -1.31911 1.35275
H -1.28002 0.0453338 2.4869
H -2.05974 0.359109 0.926172
