12
Coordinates from XML
H -0.416185549057 0.877701989445 -3.93915596942
N -8.5404076e-05 -7.5403261e-05 -3.615206099532
H 0.68186451633 -0.329321187901 -4.304426216298
H 0.468852163498 0.155099635066 -2.718229814897
H -0.734913381856 -0.703696329206 -3.499044033241
C -1.130473375655 -0.909887713465 0.998564848151
C 0.088526908206 0.070788168068 1.119212539289
O 0.433946659938 0.417204266615 2.313993299446
O 0.616193373116 0.428321925542 -0.006262387106
H -1.517211453922 -1.182472365572 1.988119353441
H -1.92407665884 -0.430265856593 0.40641438726
H -0.817349308242 -1.814097922547 0.455885332473
