12
Coordinates from XML
H 0.682775279954 0.759852440241 -3.788324591988
N 3.798628e-06 9.9022428e-05 -3.860254060282
H -0.821700291126 0.327382304068 -4.376171585127
H 0.420929475718 -0.791318144308 -4.355257729522
H -0.281922593133 -0.295446315618 -2.92125531013
C 0.092680248168 1.327290573646 1.768650892605
C -0.004462137291 -0.102043952973 1.128487702462
O 0.379744067671 -0.21141773164 -0.099210530684
O -0.466287938386 -1.021831558122 1.911854657806
H 0.505156083525 2.051807428556 1.055891560935
H -0.908989132714 1.64883424884 2.090758920061
H 0.726814496848 1.281271752989 2.666370149019
