12
Coordinates from XML
H -0.249764 -0.264138 -4.22016
N -6.40969e-05 9.33015e-05 -3.26286
H 0.879253 -0.454884 -3.00156
H 0.111882 1.01644 -3.20751
H -0.741652 -0.297067 -2.62232
C -0.848229 1.182 1.02035
C 0.0689864 -0.0910179 1.00064
O 0.953991 -0.178719 1.93653
O -0.16605 -0.919458 0.0355482
H -0.604972 1.83063 1.87076
H -0.719004 1.73626 0.0787665
H -1.90175 0.870233 1.07546
