12
Coordinates from XML
H 0.620129668469 -0.809302655503 -2.990564687435
N 0.000100221266 4.710748e-05 -2.895210370492
H -0.929840122706 -0.314807535996 -2.604417729364
H 0.379532080285 0.639604228364 -2.191259844185
H -0.069360191234 0.484615354994 -3.79460853293
C 1.332498742369 0.557631182618 1.059836232325
C -0.102162935784 -0.048202115496 0.867600371501
O -0.20366588296 -1.042046714297 0.049804523988
O -1.034521653441 0.524520948291 1.557275374443
H 2.073448585683 0.015874085571 0.459353567981
H 1.319645777231 1.618673090901 0.769129618781
H 1.606588752924 0.512513740503 2.124252937882
