12
Coordinates from XML
H 0.756614435205 -0.684109185309 -4.103246591779
N -8.766339e-06 3.9420509e-05 -4.013591608409
H -0.899234530151 -0.462500794464 -4.174627086584
H 0.013222559935 0.402113596471 -3.071939082777
H 0.129436358638 0.744587253949 -4.704562427865
C -0.059204035457 0.469432437971 -0.149450137651
C 0.004328821515 -0.042589540377 1.332453979296
O -0.152921635408 -1.311470246107 1.511434513112
O 0.207757436708 0.875904021314 2.220115216211
H -0.218108883319 -0.361429768738 -0.847665072662
H -0.876389015505 1.199797547458 -0.245684124542
H 0.87768668921 0.991400441567 -0.39425416906
