12
Coordinates from XML
H 0.183177 0.883173 -3.71704
N -8.11209e-05 5.43728e-05 -3.23218
H -0.214414 -0.728385 -3.91914
H 0.827289 -0.271611 -2.69347
H -0.796358 0.117127 -2.5991
C -1.03144 0.770966 1.66518
C 0.0796577 -0.0652461 0.938235
O 0.337127 -1.23151 1.42849
O 0.621371 0.515775 -0.0825087
H -1.45659 0.213447 2.50869
H -0.597351 1.71646 2.02309
H -1.82395 1.02545 0.945938
