12
Coordinates from XML
H 0.354127 0.956872 -3.4679
N -0.000106651 -4.72137e-05 -3.55393
H -1.01051 -0.00615705 -3.388
H 0.193261 -0.352178 -4.49582
H 0.46273 -0.598633 -2.86398
C -1.35114 -0.539861 1.09745
C 0.106304 0.0413226 1.07917
O 0.748834 -0.0480163 -0.0370732
O 0.506462 0.549484 2.19926
H -1.62927 -0.939007 0.114387
H -1.41458 -1.33509 1.85513
H -2.05472 0.252212 1.39364
