12
Coordinates from XML
H -0.073263 0.902896 -2.99985
N 0.000102117 -1.29723e-05 -3.47729
H 0.343885 -0.706415 -2.82056
H -0.921869 -0.277793 -3.82565
H 0.651648 0.0813482 -4.26305
C 1.31533 -0.107604 1.67543
C -0.105332 0.01092 1.01975
O -1.06342 0.409984 1.78763
O -0.158409 -0.31043 -0.231996
H 1.28986 0.193896 2.72973
H 1.66711 -1.14676 1.59242
H 2.0253 0.524221 1.12146
