12
Coordinates from XML
H -0.92856 -0.41011 -3.33609
N 3.10945e-05 -1.59783e-05 -3.20149
H -0.09709 0.956335 -2.84872
H 0.526323 -0.561272 -2.5258
H 0.499361 0.0149431 -4.09535
C 0.335571 -0.225353 2.37617
C -0.0263169 0.0116395 0.867824
O -0.0404116 -1.03157 0.107344
O -0.271155 1.24151 0.550928
H 0.51521 -1.28867 2.57663
H 1.2324 0.359353 2.62977
H -0.485525 0.14239 3.00919
