12
Coordinates from XML
H -0.657683 -0.762042 -3.6107
N -0.00010353 1.68741e-06 -3.79899
H -0.435939 0.678907 -4.42956
H 0.24828 0.461639 -2.91936
H 0.844864 -0.378571 -4.23632
C -1.3788 -0.0373 1.6243
C 0.106435 0.00640093 1.11991
O 0.311697 0.575846 -0.0204491
O 0.969388 -0.541684 1.91229
H -2.05185 0.457083 0.913199
H -1.68428 -1.08538 1.76105
H -1.44386 0.454075 2.60637
