12
Coordinates from XML
H -1.724587560938 2.026545437426 -2.743583306616
N -1.280587560938 1.118545437426 -2.711583306616
H -1.188587560938 0.594545437426 -3.572583306616
H -0.341587560938 1.196545437426 -2.242583306616
H -1.743587560938 0.520545437426 -1.980583306616
C 0.885139615092 -0.881964938601 2.049237218737
C 0.365139615092 -0.315964938601 0.768237218737
O 1.136139615092 0.395035061399 0.053237218737
O -0.830860384908 -0.554964938601 0.422237218737
H 1.636139615092 -1.647964938601 1.836237218737
H 1.344139615092 -0.092964938601 2.651237218737
H 0.079139615092 -1.336964938601 2.634237218737
