12
Coordinates from XML
H -1.7295 2.02921 -2.75122
N -1.2855 1.12121 -2.71922
H -1.1935 0.597211 -3.58022
H -0.346501 1.19921 -2.25022
H -1.7485 0.523211 -1.98822
C 0.886641 -0.882779 2.05157
C 0.366641 -0.316779 0.77057
O 1.13764 0.394221 0.0555701
O -0.829359 -0.555779 0.42457
H 1.63764 -1.64878 1.83857
H 1.34564 -0.0937794 2.65357
H 0.0806412 -1.33778 2.63657
