12
Coordinates from XML
H -1.74916 2.03987 -2.78175
N -1.30516 1.13187 -2.74975
H -1.21316 0.607871 -3.61075
H -0.366155 1.20987 -2.28075
H -1.76816 0.533871 -2.01875
C 0.892647 -0.886037 2.0609
C 0.372647 -0.320037 0.779902
O 1.14365 0.390963 0.0649016
O -0.823353 -0.559037 0.433902
H 1.64365 -1.65204 1.8479
H 1.35165 -0.0970372 2.6629
H 0.0866475 -1.34104 2.6459
