12
Coordinates from XML
H -1.754068898487 2.042535938465 -2.789385983157
N -1.310068898487 1.134535938465 -2.757385983157
H -1.218068898487 0.610535938465 -3.618385983157
H -0.371068898487 1.212535938465 -2.288385983157
H -1.773068898487 0.536535938465 -2.026385983157
C 0.894149066051 -0.886851610879 2.063234445539
C 0.374149066051 -0.320851610879 0.782234445539
O 1.145149066051 0.390148389121 0.067234445539
O -0.821850933949 -0.559851610879 0.436234445539
H 1.645149066051 -1.652851610879 1.850234445539
H 1.353149066051 -0.097851610879 2.665234445539
H 0.088149066051 -1.341851610879 2.648234445539
