12
Coordinates from XML
H -1.75407 2.04254 -2.78939
N -1.31007 1.13454 -2.75739
H -1.21807 0.610536 -3.61839
H -0.371069 1.21254 -2.28839
H -1.77307 0.536536 -2.02639
C 0.894149 -0.886852 2.06323
C 0.374149 -0.320852 0.782234
O 1.14515 0.390148 0.0672344
O -0.821851 -0.559852 0.436234
H 1.64515 -1.65285 1.85023
H 1.35315 -0.0978516 2.66523
H 0.0881491 -1.34185 2.64823
