12
Coordinates from XML
H -1.75898 2.0452 -2.79702
N -1.31498 1.1372 -2.76502
H -1.22298 0.613201 -3.62602
H -0.375982 1.2152 -2.29602
H -1.77798 0.539201 -2.03402
C 0.895651 -0.887666 2.06557
C 0.375651 -0.321666 0.784567
O 1.14665 0.389334 0.0695673
O -0.820349 -0.560666 0.438567
H 1.64665 -1.65367 1.85257
H 1.35465 -0.0986661 2.66757
H 0.0896506 -1.34267 2.65057
