12
Coordinates from XML
H -1.65089 1.98657 -2.62909
N -1.20689 1.07857 -2.59709
H -1.11489 0.554575 -3.45809
H -0.267895 1.15657 -2.12809
H -1.66989 0.480575 -1.86609
C 0.862619 -0.86975 2.01425
C 0.342619 -0.30375 0.733249
O 1.11362 0.40725 0.0182492
O -0.853381 -0.54275 0.387249
H 1.61362 -1.63575 1.80125
H 1.32162 -0.08075 2.61625
H 0.0566192 -1.32475 2.59925
