12
Coordinates from XML
H -1.650894852467 1.986574953405 -2.629093138593
N -1.206894852467 1.078574953405 -2.597093138593
H -1.114894852467 0.554574953405 -3.458093138593
H -0.267894852467 1.156574953405 -2.128093138593
H -1.669894852467 0.480574953405 -1.866093138593
C 0.862619237858 -0.869750020774 2.01424920124
C 0.342619237858 -0.303750020774 0.73324920124
O 1.113619237858 0.407249979226 0.01824920124
O -0.853380762142 -0.542750020774 0.38724920124
H 1.613619237858 -1.635750020774 1.80124920124
H 1.321619237858 -0.080750020774 2.61624920124
H 0.056619237858 -1.324750020774 2.59924920124
