12
Coordinates from XML
H -1.655414898809 1.989026599488 -2.636115554729
N -1.211414898809 1.081026599488 -2.604115554729
H -1.119414898809 0.557026599488 -3.465115554729
H -0.272414898809 1.159026599488 -2.135115554729
H -1.674414898809 0.483026599488 -1.873115554729
C 0.864000556999 -0.870499240009 2.016395240702
C 0.344000556999 -0.304499240009 0.735395240702
O 1.115000556999 0.406500759991 0.020395240702
O -0.851999443001 -0.543499240009 0.389395240702
H 1.615000556999 -1.636499240009 1.803395240702
H 1.323000556999 -0.081499240009 2.618395240702
H 0.058000556999 -1.325499240009 2.601395240702
