12
Coordinates from XML
H -1.66898 1.99638 -2.65718
N -1.22498 1.08838 -2.62518
H -1.13298 0.564382 -3.48618
H -0.285975 1.16638 -2.15618
H -1.68798 0.490382 -1.89418
C 0.868145 -0.872747 2.02283
C 0.348145 -0.306747 0.741833
O 1.11914 0.404253 0.0268334
O -0.847855 -0.545747 0.395833
H 1.61914 -1.63875 1.80983
H 1.32714 -0.0837469 2.62483
H 0.0621445 -1.32775 2.60783
