12
Coordinates from XML
H -0.624434 -0.500848 -3.12617
N 0.270167 -0.118201 -3.44372
H 0.607741 -0.659211 -4.24476
H 0.144324 0.859152 -3.72088
H 0.953567 -0.171899 -2.68349
C 0.581608 -0.238475 -0.200533
C -0.132141 0.0621091 1.15195
O 0.343041 1.03089 1.84363
O -1.12506 -0.703659 1.42543
H 1.40292 0.458229 -0.373857
H 0.962938 -1.26502 -0.193252
H -0.141398 -0.171487 -1.02
