12
Coordinates from XML
H -0.624434 -0.500848 -3.18745
N 0.270167 -0.118201 -3.505
H 0.607741 -0.659211 -4.30604
H 0.144324 0.859152 -3.78215
H 0.953567 -0.171899 -2.74477
C 0.581608 -0.238475 -0.181807
C -0.132141 0.0621091 1.17067
O 0.343041 1.03089 1.86235
O -1.12506 -0.703659 1.44416
H 1.40292 0.458229 -0.355132
H 0.962938 -1.26502 -0.174527
H -0.141398 -0.171487 -1.00128
