12
Coordinates from XML
H -0.624434 -0.500848 -3.24872
N 0.270167 -0.118201 -3.56627
H 0.607741 -0.659211 -4.36731
H 0.144324 0.859152 -3.84343
H 0.953567 -0.171899 -2.80604
C 0.581608 -0.238475 -0.163082
C -0.132141 0.0621091 1.1894
O 0.343041 1.03089 1.88108
O -1.12506 -0.703659 1.46288
H 1.40292 0.458229 -0.336406
H 0.962938 -1.26502 -0.155801
H -0.141398 -0.171487 -0.982553
