12
Coordinates from XML
H -0.624433763715 -0.500848317153 -3.371272219809
N 0.270166737223 -0.118201131365 -3.688820258393
H 0.607741412493 -0.659210774399 -4.489860543353
H 0.144324217738 0.859152228902 -3.965976185807
H 0.953567311685 -0.171899463756 -2.928589055035
C 0.581608496356 -0.238475138416 -0.12563085332
C -0.132141416134 0.062109091763 1.22685034552
O 0.343041474721 1.030888669497 1.918529827645
O -1.125058669415 -0.70365924914 1.500333048442
H 1.402922247147 0.458229345576 -0.29895531173
H 0.962937805623 -1.265015673609 -0.118350442801
H -0.141397656704 -0.171487486549 -0.945102181112
