12
Coordinates from XML
H -0.624433763715 -0.500848317153 -3.417228156841
N 0.270166737223 -0.118201131365 -3.734776195425
H 0.607741412493 -0.659210774399 -4.535816480385
H 0.144324217738 0.859152228902 -4.011932122838
H 0.953567311685 -0.171899463756 -2.974544992067
C 0.581608496356 -0.238475138416 -0.111586790352
C -0.132141416134 0.062109091763 1.240894408488
O 0.343041474721 1.030888669497 1.932573890614
O -1.125058669415 -0.70365924914 1.514377111411
H 1.402922247147 0.458229345576 -0.284911248762
H 0.962937805623 -1.265015673609 -0.104306379833
H -0.141397656704 -0.171487486549 -0.931058118143
