12
Coordinates from XML
H -0.624434 -0.500848 -3.53978
N 0.270167 -0.118201 -3.85733
H 0.607741 -0.659211 -4.65837
H 0.144324 0.859152 -4.13448
H 0.953567 -0.171899 -3.09709
C 0.581608 -0.238475 -0.074136
C -0.132141 0.0621091 1.27835
O 0.343041 1.03089 1.97002
O -1.12506 -0.703659 1.55183
H 1.40292 0.458229 -0.24746
H 0.962938 -1.26502 -0.0668555
H -0.141398 -0.171487 -0.893607
