12
Coordinates from XML
H -0.624433763715 -0.500848317153 -3.539777322258
N 0.270166737223 -0.118201131365 -3.857325360842
H 0.607741412493 -0.659210774399 -4.658365645802
H 0.144324217738 0.859152228902 -4.134481288255
H 0.953567311685 -0.171899463756 -3.097094157484
C 0.581608496356 -0.238475138416 -0.074135955769
C -0.132141416134 0.062109091763 1.278345243071
O 0.343041474721 1.030888669497 1.970024725197
O -1.125058669415 -0.70365924914 1.551827945994
H 1.402922247147 0.458229345576 -0.247460414179
H 0.962937805623 -1.265015673609 -0.06685554525
H -0.141397656704 -0.171487486549 -0.89360728356
