12
Coordinates from XML
H -0.624433763715 -0.500848317153 -3.647007841998
N 0.270166737223 -0.118201131365 -3.964555880582
H 0.607741412493 -0.659210774399 -4.765596165542
H 0.144324217738 0.859152228902 -4.241711807995
H 0.953567311685 -0.171899463756 -3.204324677224
C 0.581608496356 -0.238475138416 -0.041366475509
C -0.132141416134 0.062109091763 1.311114723331
O 0.343041474721 1.030888669497 2.002794205456
O -1.125058669415 -0.70365924914 1.584597426254
H 1.402922247147 0.458229345576 -0.214690933919
H 0.962937805623 -1.265015673609 -0.03408606499
H -0.141397656704 -0.171487486549 -0.8608378033
