12
Coordinates from XML
H -0.624433763715 -0.500848317153 -3.708282424707
N 0.270166737223 -0.118201131365 -4.02583046329
H 0.607741412493 -0.659210774399 -4.826870748251
H 0.144324217738 0.859152228902 -4.302986390704
H 0.953567311685 -0.171899463756 -3.265599259933
C 0.581608496356 -0.238475138416 -0.022641058218
C -0.132141416134 0.062109091763 1.329840140622
O 0.343041474721 1.030888669497 2.021519622748
O -1.125058669415 -0.70365924914 1.603322843545
H 1.402922247147 0.458229345576 -0.195965516628
H 0.962937805623 -1.265015673609 -0.015360647699
H -0.141397656704 -0.171487486549 -0.842112386009
