12
Coordinates from XML
H -0.624433763715 -0.500848317153 -3.815512944447
N 0.270166737223 -0.118201131365 -4.133060983031
H 0.607741412493 -0.659210774399 -4.934101267991
H 0.144324217738 0.859152228902 -4.410216910444
H 0.953567311685 -0.171899463756 -3.372829779673
C 0.581608496356 -0.238475138416 0.010128422042
C -0.132141416134 0.062109091763 1.362609620882
O 0.343041474721 1.030888669497 2.054289103008
O -1.125058669415 -0.70365924914 1.636092323805
H 1.402922247147 0.458229345576 -0.163196036368
H 0.962937805623 -1.265015673609 0.017408832561
H -0.141397656704 -0.171487486549 -0.809342905749
