12
Coordinates from XML
H -0.624433763715 -0.500848317153 -4.029973983927
N 0.270166737223 -0.118201131365 -4.347522022511
H 0.607741412493 -0.659210774399 -5.148562307471
H 0.144324217738 0.859152228902 -4.624677949924
H 0.953567311685 -0.171899463756 -3.587290819153
C 0.581608496356 -0.238475138416 0.075667382562
C -0.132141416134 0.062109091763 1.428148581402
O 0.343041474721 1.030888669497 2.119828063528
O -1.125058669415 -0.70365924914 1.701631284325
H 1.402922247147 0.458229345576 -0.097657075848
H 0.962937805623 -1.265015673609 0.082947793081
H -0.141397656704 -0.171487486549 -0.743803945229
