12
Coordinates from XML
H -0.624434 -0.500848 -4.02997
N 0.270167 -0.118201 -4.34752
H 0.607741 -0.659211 -5.14856
H 0.144324 0.859152 -4.62468
H 0.953567 -0.171899 -3.58729
C 0.581608 -0.238475 0.0756674
C -0.132141 0.0621091 1.42815
O 0.343041 1.03089 2.11983
O -1.12506 -0.703659 1.70163
H 1.40292 0.458229 -0.0976571
H 0.962938 -1.26502 0.0829478
H -0.141398 -0.171487 -0.743804
