12
Coordinates from XML
H -0.624434 -0.500848 -4.09125
N 0.270167 -0.118201 -4.4088
H 0.607741 -0.659211 -5.20984
H 0.144324 0.859152 -4.68595
H 0.953567 -0.171899 -3.64857
C 0.581608 -0.238475 0.0943928
C -0.132141 0.0621091 1.44687
O 0.343041 1.03089 2.13855
O -1.12506 -0.703659 1.72036
H 1.40292 0.458229 -0.0789317
H 0.962938 -1.26502 0.101673
H -0.141398 -0.171487 -0.725079
