12
Coordinates from XML
H -0.624433763715 -0.500848317153 -4.091248566635
N 0.270166737223 -0.118201131365 -4.408796605219
H 0.607741412493 -0.659210774399 -5.20983689018
H 0.144324217738 0.859152228902 -4.685952532633
H 0.953567311685 -0.171899463756 -3.648565401861
C 0.581608496356 -0.238475138416 0.094392799854
C -0.132141416134 0.062109091763 1.446873998693
O 0.343041474721 1.030888669497 2.138553480819
O -1.125058669415 -0.70365924914 1.720356701616
H 1.402922247147 0.458229345576 -0.078931658557
H 0.962937805623 -1.265015673609 0.101673210372
H -0.141397656704 -0.171487486549 -0.725078527938
