12
Coordinates from XML
H -0.624434 -0.500848 -4.19848
N 0.270167 -0.118201 -4.51603
H 0.607741 -0.659211 -5.31707
H 0.144324 0.859152 -4.79318
H 0.953567 -0.171899 -3.7558
C 0.581608 -0.238475 0.127162
C -0.132141 0.0621091 1.47964
O 0.343041 1.03089 2.17132
O -1.12506 -0.703659 1.75313
H 1.40292 0.458229 -0.0461622
H 0.962938 -1.26502 0.134443
H -0.141398 -0.171487 -0.692309
