12
Coordinates from XML
H -0.624433763715 -0.500848317153 -4.412940125856
N 0.270166737223 -0.118201131365 -4.730488164439
H 0.607741412493 -0.659210774399 -5.5315284494
H 0.144324217738 0.859152228902 -5.007644091853
H 0.953567311685 -0.171899463756 -3.970256961082
C 0.581608496356 -0.238475138416 0.192701240633
C -0.132141416134 0.062109091763 1.545182439473
O 0.343041474721 1.030888669497 2.236861921599
O -1.125058669415 -0.70365924914 1.818665142396
H 1.402922247147 0.458229345576 0.019376782223
H 0.962937805623 -1.265015673609 0.199981651152
H -0.141397656704 -0.171487486549 -0.626770087158
