12
Coordinates from XML
H -0.624434 -0.500848 -4.4589
N 0.270167 -0.118201 -4.77644
H 0.607741 -0.659211 -5.57748
H 0.144324 0.859152 -5.0536
H 0.953567 -0.171899 -4.01621
C 0.581608 -0.238475 0.206745
C -0.132141 0.0621091 1.55923
O 0.343041 1.03089 2.25091
O -1.12506 -0.703659 1.83271
H 1.40292 0.458229 0.0334208
H 0.962938 -1.26502 0.214026
H -0.141398 -0.171487 -0.612726
