12
Coordinates from XML
H -0.624434 -0.500848 -4.52017
N 0.270167 -0.118201 -4.83772
H 0.607741 -0.659211 -5.63876
H 0.144324 0.859152 -5.11487
H 0.953567 -0.171899 -4.07749
C 0.581608 -0.238475 0.225471
C -0.132141 0.0621091 1.57795
O 0.343041 1.03089 2.26963
O -1.12506 -0.703659 1.85143
H 1.40292 0.458229 0.0521463
H 0.962938 -1.26502 0.232751
H -0.141398 -0.171487 -0.594001
