12
Coordinates from XML
H -0.624433763715 -0.500848317153 -4.520170645596
N 0.270166737223 -0.118201131365 -4.83771868418
H 0.607741412493 -0.659210774399 -5.63875896914
H 0.144324217738 0.859152228902 -5.114874611593
H 0.953567311685 -0.171899463756 -4.077487480822
C 0.581608496356 -0.238475138416 0.225470720893
C -0.132141416134 0.062109091763 1.577951919733
O 0.343041474721 1.030888669497 2.269631401859
O -1.125058669415 -0.70365924914 1.851434622656
H 1.402922247147 0.458229345576 0.052146262483
H 0.962937805623 -1.265015673609 0.232751131412
H -0.141397656704 -0.171487486549 -0.594000606898
