12
Coordinates from XML
H -0.624434 -0.500848 -4.6274
N 0.270167 -0.118201 -4.94495
H 0.607741 -0.659211 -5.74599
H 0.144324 0.859152 -5.22211
H 0.953567 -0.171899 -4.18472
C 0.581608 -0.238475 0.25824
C -0.132141 0.0621091 1.61072
O 0.343041 1.03089 2.3024
O -1.12506 -0.703659 1.8842
H 1.40292 0.458229 0.0849157
H 0.962938 -1.26502 0.265521
H -0.141398 -0.171487 -0.561231
