12
Coordinates from XML
H -0.624434 -0.500848 -4.67336
N 0.270167 -0.118201 -4.99091
H 0.607741 -0.659211 -5.79195
H 0.144324 0.859152 -5.26806
H 0.953567 -0.171899 -4.23067
C 0.581608 -0.238475 0.272284
C -0.132141 0.0621091 1.62477
O 0.343041 1.03089 2.31644
O -1.12506 -0.703659 1.89825
H 1.40292 0.458229 0.0989598
H 0.962938 -1.26502 0.279565
H -0.141398 -0.171487 -0.547187
