12
Coordinates from XML
H -0.054375 0.466848 -2.2119
N -0.00235793 -0.542574 -2.37291
H -0.405485 -0.763503 -3.28778
H 0.976283 -0.841929 -2.35013
H -0.525966 -1.03226 -1.64222
C -0.01506 -1.14444 1.33291
C -0.00115527 0.27109 0.680934
O -0.797958 1.13861 1.18617
O 0.813817 0.410327 -0.300652
H -0.716965 -1.18518 2.16698
H -0.290682 -1.89136 0.580987
H 0.991344 -1.39783 1.68177
