12
Coordinates from XML
H -0.054374987175 0.466848482008 -2.303808902653
N -0.002357930827 -0.542574450157 -2.464822106295
H -0.405485130803 -0.763502932982 -3.379695157316
H 0.97628343091 -0.841929248343 -2.442037713901
H -0.525965615221 -1.032261088064 -1.73412837556
C -0.015059982938 -1.144440975332 1.360998855481
C -0.001155272986 0.271090273423 0.709022511535
O -0.797958410945 1.138611642159 1.214259673782
O 0.813816518272 0.410326732255 -0.272564367236
H -0.716965247235 -1.185176117662 2.195063859702
H -0.290682287855 -1.891364001702 0.609075418827
H 0.991344357323 -1.397834485693 1.709854889895
