12
Coordinates from XML
H -0.054375 0.466848 -2.457
N -0.00235793 -0.542574 -2.61801
H -0.405485 -0.763503 -3.53288
H 0.976283 -0.841929 -2.59522
H -0.525966 -1.03226 -1.88731
C -0.01506 -1.14444 1.40781
C -0.00115527 0.27109 0.755836
O -0.797958 1.13861 1.26107
O 0.813817 0.410327 -0.225751
H -0.716965 -1.18518 2.24188
H -0.290682 -1.89136 0.655889
H 0.991344 -1.39783 1.75667
