12
Coordinates from XML
H -0.054374987175 0.466848482008 -2.778686918645
N -0.002357930827 -0.542574450157 -2.939700122286
H -0.405485130803 -0.763502932982 -3.854573173308
H 0.97628343091 -0.841929248343 -2.916915729893
H -0.525965615221 -1.032261088064 -2.209006391551
C -0.015059982938 -1.144440975332 1.506120839489
C -0.001155272986 0.271090273423 0.854144495543
O -0.797958410945 1.138611642159 1.359381657791
O 0.813816518272 0.410326732255 -0.127442383228
H -0.716965247235 -1.185176117662 2.340185843711
H -0.290682287855 -1.891364001702 0.754197402835
H 0.991344357323 -1.397834485693 1.854976873903
