12
Coordinates from XML
H -0.054375 0.466848 -2.93187
N -0.00235793 -0.542574 -3.09289
H -0.405485 -0.763503 -4.00776
H 0.976283 -0.841929 -3.0701
H -0.525966 -1.03226 -2.36219
C -0.01506 -1.14444 1.55293
C -0.00115527 0.27109 0.900958
O -0.797958 1.13861 1.4062
O 0.813817 0.410327 -0.0806288
H -0.716965 -1.18518 2.387
H -0.290682 -1.89136 0.801011
H 0.991344 -1.39783 1.90179
