12
Coordinates from XML
H -0.054375 0.466848 -3.00847
N -0.00235793 -0.542574 -3.16948
H -0.405485 -0.763503 -4.08435
H 0.976283 -0.841929 -3.1467
H -0.525966 -1.03226 -2.43879
C -0.01506 -1.14444 1.57634
C -0.00115527 0.27109 0.924365
O -0.797958 1.13861 1.4296
O 0.813817 0.410327 -0.0572221
H -0.716965 -1.18518 2.41041
H -0.290682 -1.89136 0.824418
H 0.991344 -1.39783 1.9252
