12
Coordinates from XML
H -0.27547486777 -0.464718855524 -3.315603969415
N -0.50332274737 0.245147853296 -2.614362013062
H -0.951904883831 1.04430195342 -3.070914775042
H -1.141307524601 -0.153295331913 -1.920035151406
H 0.355139343047 0.554903831009 -2.150718386745
C -1.072291067281 0.517822381522 1.280282707782
C 0.248676423672 -0.12192851465 0.756108224505
O 0.240563035547 -0.530681682489 -0.458637912227
O 1.206140623425 -0.170170701899 1.609345360447
H -1.834269078763 0.539232117296 0.499945654729
H -1.439522239331 -0.052492066705 2.14001127733
H -0.872916650002 1.535093697327 1.632656673496
