12
Coordinates from XML
H -0.122408 -0.39998 -2.50535
N 0.168963 0.571437 -2.64326
H 0.523602 0.950011 -1.76052
H 0.907017 0.609197 -3.35158
H -0.632104 1.1271 -2.95535
C 0.358769 1.21026 0.809334
C -0.083386 -0.284212 0.802483
O -0.239854 -0.826514 -0.348247
O -0.245018 -0.809398 1.96228
H 0.491119 1.58474 -0.206659
H -0.393178 1.81234 1.33022
H 1.29465 1.31365 1.36809
