12
Coordinates from XML
H -0.122408 -0.39998 -2.58194
N 0.168963 0.571437 -2.71985
H 0.523602 0.950011 -1.83712
H 0.907017 0.609197 -3.42818
H -0.632104 1.1271 -3.03195
C 0.358769 1.21026 0.832741
C -0.083386 -0.284212 0.82589
O -0.239854 -0.826514 -0.32484
O -0.245018 -0.809398 1.98569
H 0.491119 1.58474 -0.183252
H -0.393178 1.81234 1.35363
H 1.29465 1.31365 1.39149
