12
Coordinates from XML
H -0.786099 -0.275499 -2.9518
N 0.235162 -0.340177 -2.97201
H 0.546724 -0.522604 -3.93011
H 0.639606 0.541051 -2.64378
H 0.541001 -1.10375 -2.36267
C 0.511542 -0.713307 -0.130064
C -0.113529 0.171242 0.990585
O 0.67691 0.99486 1.57335
O -1.3626 -0.0277977 1.20805
H 1.56797 -0.480248 -0.270178
H 0.397765 -1.77059 0.13158
H -0.0311105 -0.555527 -1.06782
