12
Coordinates from XML
H -0.786098558699 -0.275498565502 -2.997752284686
N 0.235162396205 -0.340177146089 -3.017961814137
H 0.546723814652 -0.522603537049 -3.976066050525
H 0.639606491656 0.541051183682 -2.689734845256
H 0.541000712545 -1.10374904539 -2.40862429068
C 0.511542059465 -0.713306669701 -0.116019901553
C -0.113529383272 0.171242141025 1.004629152855
O 0.676910105573 0.994859624723 1.587392235945
O -1.362597559795 -0.027797653605 1.222092858194
H 1.567973160156 -0.480248436124 -0.256134042132
H 0.397764913045 -1.770589913794 0.145623786679
H -0.031110496268 -0.555527047013 -1.053779089382
