12
Coordinates from XML
H -0.786098558699 -0.275498565502 -3.043708221717
N 0.235162396205 -0.340177146089 -3.063917751168
H 0.546723814652 -0.522603537049 -4.022021987556
H 0.639606491656 0.541051183682 -2.735690782288
H 0.541000712545 -1.10374904539 -2.454580227711
C 0.511542059465 -0.713306669701 -0.101975838585
C -0.113529383272 0.171242141025 1.018673215824
O 0.676910105573 0.994859624723 1.601436298914
O -1.362597559795 -0.027797653605 1.236136921162
H 1.567973160156 -0.480248436124 -0.242089979164
H 0.397764913045 -1.770589913794 0.159667849647
H -0.031110496268 -0.555527047013 -1.039735026414
