12
Coordinates from XML
H -0.786098558699 -0.275498565502 -3.089664158749
N 0.235162396205 -0.340177146089 -3.109873688199
H 0.546723814652 -0.522603537049 -4.067977924588
H 0.639606491656 0.541051183682 -2.781646719319
H 0.541000712545 -1.10374904539 -2.500536164742
C 0.511542059465 -0.713306669701 -0.087931775616
C -0.113529383272 0.171242141025 1.032717278792
O 0.676910105573 0.994859624723 1.615480361882
O -1.362597559795 -0.027797653605 1.250180984131
H 1.567973160156 -0.480248436124 -0.228045916195
H 0.397764913045 -1.770589913794 0.173711912616
H -0.031110496268 -0.555527047013 -1.025690963445
