12
Coordinates from XML
H -0.786099 -0.275499 -3.13562
N 0.235162 -0.340177 -3.15583
H 0.546724 -0.522604 -4.11393
H 0.639606 0.541051 -2.8276
H 0.541001 -1.10375 -2.54649
C 0.511542 -0.713307 -0.0738877
C -0.113529 0.171242 1.04676
O 0.67691 0.99486 1.62952
O -1.3626 -0.0277977 1.26423
H 1.56797 -0.480248 -0.214002
H 0.397765 -1.77059 0.187756
H -0.0311105 -0.555527 -1.01165
