12
Coordinates from XML
H -0.786098558699 -0.275498565502 -3.166257387134
N 0.235162396205 -0.340177146089 -3.186466916585
H 0.546723814652 -0.522603537049 -4.144571152973
H 0.639606491656 0.541051183682 -2.858239947705
H 0.541000712545 -1.10374904539 -2.577129393128
C 0.511542059465 -0.713306669701 -0.064525004002
C -0.113529383272 0.171242141025 1.056124050406
O 0.676910105573 0.994859624723 1.638887133496
O -1.362597559795 -0.027797653605 1.273587755745
H 1.567973160156 -0.480248436124 -0.204639144581
H 0.397764913045 -1.770589913794 0.19711868423
H -0.031110496268 -0.555527047013 -1.002284191831
