12
Coordinates from XML
H -0.786098558699 -0.275498565502 -3.212213324166
N 0.235162396205 -0.340177146089 -3.232422853617
H 0.546723814652 -0.522603537049 -4.190527090005
H 0.639606491656 0.541051183682 -2.904195884736
H 0.541000712545 -1.10374904539 -2.62308533016
C 0.511542059465 -0.713306669701 -0.050480941033
C -0.113529383272 0.171242141025 1.070168113375
O 0.676910105573 0.994859624723 1.652931196465
O -1.362597559795 -0.027797653605 1.287631818714
H 1.567973160156 -0.480248436124 -0.190595081613
H 0.397764913045 -1.770589913794 0.211162747199
H -0.031110496268 -0.555527047013 -0.988240128863
