12
Coordinates from XML
H -0.786098558699 -0.275498565502 -3.503267592032
N 0.235162396205 -0.340177146089 -3.523477121483
H 0.546723814652 -0.522603537049 -4.481581357871
H 0.639606491656 0.541051183682 -3.195250152602
H 0.541000712545 -1.10374904539 -2.914139598026
C 0.511542059465 -0.713306669701 0.038464791101
C -0.113529383272 0.171242141025 1.159113845509
O 0.676910105573 0.994859624723 1.741876928599
O -1.362597559795 -0.027797653605 1.376577550848
H 1.567973160156 -0.480248436124 -0.101649349479
H 0.397764913045 -1.770589913794 0.300108479333
H -0.031110496268 -0.555527047013 -0.899294396728
