12
Coordinates from XML
H -0.786099 -0.275499 -3.50327
N 0.235162 -0.340177 -3.52348
H 0.546724 -0.522604 -4.48158
H 0.639606 0.541051 -3.19525
H 0.541001 -1.10375 -2.91414
C 0.511542 -0.713307 0.0384648
C -0.113529 0.171242 1.15911
O 0.67691 0.99486 1.74188
O -1.3626 -0.0277977 1.37658
H 1.56797 -0.480248 -0.101649
H 0.397765 -1.77059 0.300108
H -0.0311105 -0.555527 -0.899294
