12
Coordinates from XML
H -1.536602252119 1.924583331021 -2.451526330571
N -1.092602252119 1.016583331021 -2.419526330571
H -1.000602252119 0.492583331021 -3.280526330571
H -0.153602252119 1.094583331021 -1.950526330571
H -1.555602252119 0.418583331021 -1.688526330571
C 0.827691596735 -0.850805477272 1.959985060542
C 0.307691596735 -0.284805477272 0.678985060542
O 1.078691596735 0.426194522728 -0.036014939458
O -0.888308403265 -0.523805477272 0.332985060542
H 1.578691596735 -1.616805477272 1.746985060542
H 1.286691596735 -0.061805477272 2.561985060542
H 0.021691596735 -1.305805477272 2.544985060542
