12
Coordinates from XML
H -1.559331628008 1.936911608467 -2.486839051714
N -1.115331628008 1.028911608467 -2.454839051714
H -1.023331628008 0.504911608467 -3.315839051714
H -0.176331628008 1.106911608467 -1.985839051714
H -1.578331628008 0.430911608467 -1.723839051714
C 0.834637658698 -0.854572979709 1.970776573268
C 0.314637658698 -0.288572979709 0.689776573268
O 1.085637658698 0.422427020291 -0.025223426732
O -0.881362341302 -0.527572979709 0.343776573268
H 1.585637658698 -1.620572979709 1.757776573268
H 1.293637658698 -0.065572979709 2.572776573268
H 0.028637658698 -1.309572979709 2.555776573268
