12
Coordinates from XML
H -1.570696315952 1.94307574719 -2.504495412286
N -1.126696315952 1.03507574719 -2.472495412286
H -1.034696315952 0.51107574719 -3.333495412286
H -0.187696315952 1.11307574719 -2.003495412286
H -1.589696315952 0.43707574719 -1.741495412286
C 0.83811068968 -0.856456730927 1.976172329631
C 0.31811068968 -0.290456730927 0.695172329631
O 1.08911068968 0.420543269073 -0.019827670369
O -0.87788931032 -0.529456730927 0.349172329631
H 1.58911068968 -1.622456730927 1.763172329631
H 1.29711068968 -0.067456730927 2.578172329631
H 0.03211068968 -1.311456730927 2.561172329631
