12
Coordinates from XML
H -1.582061003896 1.949239885913 -2.522151772857
N -1.138061003896 1.041239885913 -2.490151772857
H -1.046061003896 0.517239885913 -3.351151772857
H -0.199061003896 1.119239885913 -2.021151772857
H -1.601061003896 0.443239885913 -1.759151772857
C 0.841583720662 -0.858340482145 1.981568085994
C 0.321583720662 -0.292340482145 0.700568085994
O 1.092583720662 0.418659517855 -0.014431914006
O -0.874416279338 -0.531340482145 0.354568085994
H 1.592583720662 -1.624340482145 1.768568085994
H 1.300583720662 -0.069340482145 2.583568085994
H 0.035583720662 -1.313340482145 2.566568085994
