12
Coordinates from XML
H -1.58206 1.94924 -2.52215
N -1.13806 1.04124 -2.49015
H -1.04606 0.51724 -3.35115
H -0.199061 1.11924 -2.02115
H -1.60106 0.44324 -1.75915
C 0.841584 -0.85834 1.98157
C 0.321584 -0.29234 0.700568
O 1.09258 0.41866 -0.0144319
O -0.874416 -0.53134 0.354568
H 1.59258 -1.62434 1.76857
H 1.30058 -0.0693405 2.58357
H 0.0355837 -1.31334 2.56657
