12
Coordinates from XML
H -1.59342569184 1.955404024636 -2.539808133429
N -1.14942569184 1.047404024636 -2.507808133429
H -1.05742569184 0.523404024636 -3.368808133429
H -0.21042569184 1.125404024636 -2.038808133429
H -1.61242569184 0.449404024636 -1.776808133429
C 0.845056751644 -0.860224233364 1.986963842358
C 0.325056751644 -0.294224233364 0.705963842358
O 1.096056751644 0.416775766636 -0.009036157642
O -0.870943248356 -0.533224233364 0.359963842358
H 1.596056751644 -1.626224233364 1.773963842358
H 1.304056751644 -0.071224233364 2.588963842358
H 0.039056751644 -1.315224233364 2.571963842358
