12
Coordinates from XML
H -1.59343 1.9554 -2.53981
N -1.14943 1.0474 -2.50781
H -1.05743 0.523404 -3.36881
H -0.210426 1.1254 -2.03881
H -1.61243 0.449404 -1.77681
C 0.845057 -0.860224 1.98696
C 0.325057 -0.294224 0.705964
O 1.09606 0.416776 -0.00903616
O -0.870943 -0.533224 0.359964
H 1.59606 -1.62622 1.77396
H 1.30406 -0.0712242 2.58896
H 0.0390568 -1.31522 2.57196
