12
Coordinates from XML
H -1.604790379785 1.961568163359 -2.557464494001
N -1.160790379785 1.053568163359 -2.525464494001
H -1.068790379785 0.529568163359 -3.386464494001
H -0.221790379785 1.131568163359 -2.056464494001
H -1.623790379785 0.455568163359 -1.794464494001
C 0.848529782625 -0.862107984582 1.992359598721
C 0.328529782625 -0.296107984582 0.711359598721
O 1.099529782625 0.414892015418 -0.003640401279
O -0.867470217375 -0.535107984582 0.365359598721
H 1.599529782625 -1.628107984582 1.779359598721
H 1.307529782625 -0.073107984582 2.594359598721
H 0.042529782625 -1.317107984582 2.577359598721
