12
Coordinates from XML
H -1.62752 1.9739 -2.59278
N -1.18352 1.0659 -2.56078
H -1.09152 0.541896 -3.42178
H -0.24452 1.1439 -2.09178
H -1.64652 0.467896 -1.82978
C 0.855476 -0.865875 2.00315
C 0.335476 -0.299875 0.722151
O 1.10648 0.411125 0.00715111
O -0.860524 -0.538875 0.376151
H 1.60648 -1.63188 1.79015
H 1.31448 -0.0768755 2.60515
H 0.0494758 -1.32088 2.58815
