12
Coordinates from XML
H -1.67298 1.99855 -2.6634
N -1.22898 1.09055 -2.6314
H -1.13698 0.566553 -3.4924
H -0.289979 1.16855 -2.1624
H -1.69198 0.492553 -1.9004
C 0.869368 -0.87341 2.02473
C 0.349368 -0.30741 0.743734
O 1.12037 0.40359 0.0287341
O -0.846632 -0.54641 0.397734
H 1.62037 -1.63941 1.81173
H 1.32837 -0.0844105 2.62673
H 0.063368 -1.32841 2.60973
