12
Coordinates from XML
H -1.67297850745 1.998552995696 -2.663402657431
N -1.22897850745 1.090552995696 -2.631402657431
H -1.13697850745 0.566552995696 -3.492402657431
H -0.28997850745 1.168552995696 -2.162402657431
H -1.69197850745 0.492552995696 -1.900402657431
C 0.869367968516 -0.873410491892 2.0247341369
C 0.349367968516 -0.307410491892 0.7437341369
O 1.120367968516 0.403589508108 0.0287341369
O -0.846632031484 -0.546410491892 0.3977341369
H 1.620367968516 -1.639410491892 1.8117341369
H 1.328367968516 -0.084410491892 2.6267341369
H 0.063367968516 -1.328410491892 2.6097341369
