12
Coordinates from XML
H -1.610472723757 1.96465023272 -2.566292674287
N -1.166472723757 1.05665023272 -2.534292674287
H -1.074472723757 0.53265023272 -3.395292674287
H -0.227472723757 1.13465023272 -2.065292674287
H -1.629472723757 0.45865023272 -1.803292674287
C 0.850266298116 -0.863049860191 1.995057476902
C 0.330266298116 -0.297049860191 0.714057476902
O 1.101266298116 0.413950139809 -0.000942523098
O -0.865733701884 -0.536049860191 0.368057476902
H 1.601266298116 -1.629049860191 1.782057476902
H 1.309266298116 -0.074049860191 2.597057476902
H 0.044266298116 -1.318049860191 2.580057476902
