12
Coordinates from XML
H -1.62184 1.97081 -2.58395
N -1.17784 1.06281 -2.55195
H -1.08584 0.538814 -3.41295
H -0.238837 1.14081 -2.08295
H -1.64084 0.464814 -1.82095
C 0.853739 -0.864934 2.00045
C 0.333739 -0.298934 0.719453
O 1.10474 0.412066 0.00445323
O -0.862261 -0.537934 0.373453
H 1.60474 -1.63093 1.78745
H 1.31274 -0.0759336 2.60245
H 0.0477393 -1.31993 2.58545
