12
Coordinates from XML
H -1.621837411701 1.970814371443 -2.583949034858
N -1.177837411701 1.062814371443 -2.551949034858
H -1.085837411701 0.538814371443 -3.412949034858
H -0.238837411701 1.140814371443 -2.082949034858
H -1.640837411701 0.464814371443 -1.820949034858
C 0.853739329098 -0.864933611409 2.000453233266
C 0.333739329098 -0.298933611409 0.719453233266
O 1.104739329098 0.412066388591 0.004453233266
O -0.862260670902 -0.537933611409 0.373453233266
H 1.604739329098 -1.630933611409 1.787453233266
H 1.312739329098 -0.075933611409 2.602453233266
H 0.047739329098 -1.319933611409 2.585453233266
