12
Coordinates from XML
H -1.64457 1.98314 -2.61926
N -1.20057 1.07514 -2.58726
H -1.10857 0.551143 -3.44826
H -0.261567 1.15314 -2.11826
H -1.66357 0.477143 -1.85626
C 0.860685 -0.868701 2.01124
C 0.340685 -0.302701 0.730245
O 1.11169 0.408299 0.0152447
O -0.855315 -0.541701 0.384245
H 1.61169 -1.6347 1.79824
H 1.31969 -0.0797011 2.61324
H 0.0546854 -1.3237 2.59624
