12
Coordinates from XML
H -1.644566787589 1.983142648889 -2.619261756002
N -1.200566787589 1.075142648889 -2.587261756002
H -1.108566787589 0.551142648889 -3.448261756002
H -0.261566787589 1.153142648889 -2.118261756002
H -1.663566787589 0.477142648889 -1.856261756002
C 0.860685391061 -0.868701113846 2.011244745992
C 0.340685391061 -0.302701113846 0.730244745992
O 1.111685391061 0.408298886154 0.015244745992
O -0.855314608939 -0.541701113846 0.384244745992
H 1.611685391061 -1.634701113846 1.798244745992
H 1.319685391061 -0.079701113846 2.613244745992
H 0.054685391061 -1.323701113846 2.596244745992
