9
Coordinates from XML
N -0.432925569672 0.525203024057 -2.831117939989
C 0.495646448961 -0.601274667045 -2.616213966872
H 0.042774439345 1.429921122177 -2.717397210317
H -1.213845188396 0.499969892795 -2.162232413028
H -0.83526836997 0.503892176592 -3.777471583628
H 0.886407316941 -0.522700417155 -1.599986353928
H 1.297292727725 -0.518424926751 -3.352597137698
H -0.066358959217 -1.52753536432 -2.75024613414
Br 3.3716405e-05 -4.0901408e-05 1.109081515298
