9
Coordinates from XML
N -0.203033583886 -0.111124188339 -2.836910074074
C 0.232446196014 0.127208033683 -4.226491598578
H 0.128623809026 -1.021157260425 -2.491105329401
H -1.228632477354 -0.105761150087 -2.759462301105
H 0.159057489809 0.61206746841 -2.201455133139
H -0.18191959228 -0.669161476854 -4.84752551567
H 1.323871404547 0.10965161717 -4.242105580045
H -0.148916115623 1.103037353228 -4.533238247101
Br 1.5812133e-05 8.653026e-06 1.415173812665
