9
Coordinates from XML
N -0.344710721569 0.496272080841 -3.344319762164
C 0.394638052574 -0.568158070089 -2.638817427679
H -0.720120421766 1.191440279551 -2.685877302642
H -1.137886756061 0.112968972453 -3.875196881097
H 0.260589654073 0.995328321579 -4.009506520773
H -0.298543800779 -1.057243206735 -1.951881348196
H 1.218899643261 -0.099825521888 -2.097505628053
H 0.765603387974 -1.270059744077 -3.388145353212
Br 2.6845028e-05 -3.8648765e-05 1.224627840552
