9
Coordinates from XML
N -0.026548859959 -0.302645059491 -2.497708993471
C 0.030397101482 0.346497522414 -3.821624687854
H -0.231309085435 0.378505471016 -1.754846324566
H 0.866487400075 -0.756255040984 -2.26403350705
H -0.758179948531 -1.024867520217 -2.465619003485
H 0.82145010426 1.098095221372 -3.791250756326
H -0.941432574807 0.806742676954 -4.009992646934
H 0.249768263373 -0.424696697848 -4.562508854215
Br 2.067805e-06 2.3570659e-05 1.264989132212
