9
Coordinates from XML
N 0.195201538511 0.224665619302 -2.4378081904
C -0.223466317213 -0.257205759441 -3.768183664066
H 0.917509290787 0.952897088111 -2.513228206571
H 0.583493912663 -0.53846210034 -1.867944061252
H -0.596492421803 0.626612874522 -1.918599005946
H 0.656130979469 -0.669636092054 -4.265975132866
H -0.624182255928 0.594585658822 -4.321030049814
H -0.986692574529 -1.023705266612 -3.62074633619
Br -1.5201008e-05 -1.7496273e-05 1.241883194744
