9
Coordinates from XML
N 0.433130369183 0.224585562306 -3.147257719666
C -0.495903488014 -0.25713882449 -4.187555469038
H 1.22440450972 0.73629738286 -3.55929411032
H 0.820337382827 -0.555608727915 -2.600222430045
H -0.037595317985 0.860033419221 -2.489578125501
H 0.060578995897 -0.92291743415 -4.849864021014
H -0.870311063052 0.613163774804 -4.72991454144
H -1.308803820545 -0.788674256402 -3.689121206579
K -5.2711078e-05 -2.7332199e-05 2.987689373863
