9
Coordinates from XML
N 0.626831411598 -0.276670450707 -3.043912628087
C -0.717686245854 0.316785782876 -3.176062798809
H 1.353527026886 0.449300489921 -2.992751939222
H 0.849786932767 -0.881754051907 -3.845189534742
H 0.701507340098 -0.849818056437 -2.193122155792
H -0.732503095986 0.909373282209 -4.092690884014
H -0.893407652195 0.94413562983 -2.300097521597
H -1.440009284747 -0.500297014489 -3.225039423188
K -7.6285317e-05 3.3672682e-05 2.554472250987
