9
Coordinates from XML
N 0.280738915116 0.218315971045 -2.955579815839
C -0.32142013596 -0.24996303135 -4.218711223541
H 1.241318597162 0.555838743307 -3.100847818666
H 0.319973516389 -0.535575297275 -2.257017999238
H -0.26039605893 0.991427139217 -2.546445166228
H 0.295338034407 -1.065761481923 -4.600377016255
H -0.334341204321 0.591136063243 -4.914517496197
H -1.334162369853 -0.593129536021 -3.998794198824
K -3.4164526e-05 -2.656954e-05 2.915465289286
