6
Coordinates from XML
H 0.560177092194 -0.278900891421 -0.943971019725
N -3.056891e-06 1.521964e-06 -1.754518763156
H 0.614283226289 0.384363046619 -2.477983641821
H -0.494371338838 -0.816621081551 -2.125026138564
H -0.680046502114 0.711137777646 -1.471015097459
F -2.13e-10 1.06e-10 1.665485659677
