6
Coordinates from XML
H 0.907838766338 -0.321034355438 -1.406189387015
N -4.954083e-06 1.751887e-06 -1.754516240826
H -0.552074277253 0.371753704613 -0.976375637813
H 0.142953818584 0.734745276498 -2.453274376636
H -0.498649467388 -0.785488969308 -2.182191545548
F -3.46e-10 1.22e-10 1.665485659853
