15
Coordinates from XML
N 0.652759 -0.217235 -2.7806
C -0.747346 0.248513 -2.79354
H 0.728022 -1.16757 -2.39469
H 1.24678 0.397111 -2.20825
H 1.05023 -0.235983 -3.72907
H -1.10963 0.245968 -1.76381
H -1.32298 -0.441043 -3.41396
H -0.759993 1.25685 -3.21172
C -0.00627467 -1.34507 0.958598
C -0.00535115 0.104778 1.55876
O -1.13072 0.539227 2.01879
O 1.13685 0.710639 1.52311
H -0.999827 -1.80338 1.03532
H 0.304345 -1.30085 -0.0959377
H 0.733003 -1.96014 1.49273
