15
Coordinates from XML
N -0.64977593335 0.186447050056 -2.551373510327
C 0.743888849627 -0.213662613928 -2.277526053744
H -0.913672254718 -0.016668033581 -3.524430926088
H -0.78757581394 1.193988260704 -2.397256957825
H -1.309908887844 -0.31309374366 -1.940961700314
H 1.391492287236 0.348088753945 -2.953271359529
H 0.824789414156 -1.287235019631 -2.458242401569
H 0.961547738663 0.026459702943 -1.235058087347
C -0.265555191193 -1.430247883684 1.347786141541
C 0.014887320635 0.113266441167 1.313752796265
O -1.010733433297 0.882541463126 1.161641019091
O 1.258205717927 0.446101044401 1.441567450009
H -1.337928179602 -1.638835610169 1.249836221813
H 0.285956571824 -1.916804298093 0.52950556872
H 0.113251093751 -1.847864842267 2.292373731408
