15
Coordinates from XML
N -0.205961 -0.428941 -2.47127
C 0.235765 0.491283 -3.53685
H 0.573158 -0.685445 -1.85086
H -0.589152 -1.29939 -2.8629
H -0.938548 -0.0031022 -1.88827
H 1.00882 -0.0160991 -4.11696
H 0.629812 1.39048 -3.05943
H -0.63152 0.724292 -4.15757
C -0.377345 1.3829 1.36208
C 0.0327495 -0.106666 1.63644
O 0.871114 -0.306315 2.59774
O -0.520611 -0.978519 0.857577
H 0.115507 2.06412 2.06644
H -0.103554 1.64992 0.330468
H -1.46972 1.48085 1.44729
