15
Coordinates from XML
N 0.40821737804 0.55227116808 -2.980535248649
C -0.467518803763 -0.632346302728 -3.065088709469
H 0.229710197574 1.089763124036 -2.122062579425
H 0.26086315048 1.184914318526 -3.777987056481
H 1.401339720971 0.284658966845 -2.977245610114
H -1.501920596075 -0.283635572547 -3.064551382919
H -0.264504958001 -1.260489762923 -2.195616351172
H -0.230606831492 -1.157241670963 -3.992521267556
C -1.020690026016 -0.421992856147 0.692818495907
C 0.077054233793 0.03012458879 1.718874097759
O -0.141950728127 -0.252139291726 2.959512607347
O 1.090309632104 0.644487742153 1.200388312562
H -1.840104321576 -0.948088653665 1.197665281328
H -1.411811484249 0.462138682233 0.167631964514
H -0.563648105593 -1.077175690679 -0.063483015957
