15
Coordinates from XML
N -0.000149246 0.188265 -2.28039
C 7.95145e-05 -0.215664 -3.69962
H -0.920233 0.546821 -1.99295
H 0.690374 0.92926 -2.10155
H 0.229356 -0.60356 -1.66536
H -0.248888 0.663376 -4.29703
H -0.749214 -0.99982 -3.8238
H 0.998536 -0.584878 -3.94157
C -0.581946 -0.908128 2.57442
C 0.0512132 0.0699897 1.5234
O 1.31875 0.290363 1.63108
O -0.77863 0.553566 0.657105
H 0.178703 -1.29075 3.26587
H -1.3652 -0.378156 3.13668
H -1.06513 -1.74443 2.04786
