15
Coordinates from XML
N 0.002678973701 0.014224774155 -2.448756133053
C -0.002895552407 -0.016198819319 -3.924027304607
H -0.952433498214 -0.026322187081 -2.069475432349
H 0.44051091512 0.874370477145 -2.093323198873
H 0.524327852994 -0.782180883342 -2.059475289137
H -0.568560880003 0.849431027054 -4.273733232816
H -0.477709989262 -0.948036891929 -4.237060956132
H 1.033868884664 0.029275190496 -4.262885971983
C 1.313629177558 0.579029098079 1.466317292807
C -0.104884267726 -0.040167224961 1.724499904797
O -0.934531001542 0.681215243349 2.401340812652
O -0.28569104825 -1.219740326929 1.225628878281
H 1.391563906015 1.582519215778 1.902230832934
H 2.080670182356 -0.078286933045 1.902286554556
H 1.498507732921 0.625111423552 0.382878240721
