15
Coordinates from XML
N 0.120240790279 -0.447766405238 -3.043064153538
C -0.137524665922 0.512582190186 -4.133325243761
H 1.109964562943 -0.72595957847 -3.014901195755
H -0.438609127932 -1.303598192998 -3.157601178017
H -0.114362906608 -0.045423337309 -2.126003489734
H 0.129662125452 0.028717965969 -5.074639835722
H 0.481572223828 1.393949033847 -3.955357443311
H -1.198858884178 0.767149705994 -4.110116688101
C 0.908947436273 -0.422369330049 0.873921301041
C -0.074699061065 0.036139560403 2.007257926983
O -1.005884435606 0.861711360427 1.663535678202
O 0.161802721934 -0.469293741953 3.174117035606
H 0.641314371209 0.031054277947 -0.088298230501
H 1.935693585515 -0.137791375678 1.148317361343
H 0.883375877256 -1.519084227223 0.792028870225
