15
Coordinates from XML
N -0.5948 -0.0854107 -2.95327
C 0.680804 0.0977665 -2.23448
H -0.643181 -1.00998 -3.40112
H -0.714632 0.622023 -3.6902
H -1.39849 -0.00771996 -2.31612
H 1.48997 0.00450695 -2.96121
H 0.748022 -0.678884 -1.47024
H 0.670404 1.09207 -1.78389
C -1.31645 -0.0662843 0.805877
C 0.105617 0.00188139 1.46566
O 1.03434 -0.70053 0.908069
O 0.188648 0.762287 2.50866
H -1.31039 -0.714442 -0.0789628
H -2.03978 -0.446513 1.54256
H -1.63628 0.948288 0.525704
