15
Coordinates from XML
N -0.594799723548 -0.085410672408 -2.95327195249
C 0.680803810028 0.09776646541 -2.23447889374
H -0.643181007895 -1.009981469102 -3.401117721952
H -0.714632199615 0.62202290065 -3.690196594085
H -1.398488209829 -0.007719957552 -2.316115715884
H 1.489973098669 0.004506951783 -2.961207354334
H 0.748021829595 -0.678884307808 -1.470243115785
H 0.670403911556 1.092069058964 -1.783892859156
C -1.316452025286 -0.066284266922 0.805877205704
C 0.10561665122 0.001881392738 1.465662674016
O 1.034340114375 -0.700530478103 0.908069385186
O 0.188647692081 0.762287239834 2.508660703651
H -1.310388243558 -0.714441840334 -0.078962804278
H -2.039782727265 -0.446512939708 1.542561885177
H -1.636279711512 0.948288212756 0.525704446247
