15
Coordinates from XML
N 0.173203 0.0534754 -4.6557
C -0.198216 -0.0612847 -3.23223
H 0.589626 0.971058 -4.86155
H -0.646306 -0.058584 -5.26703
H 0.859223 -0.664723 -4.92307
H -0.924296 0.723577 -3.01226
H 0.709316 0.0659622 -2.63898
H -0.63178 -1.0514 -3.07903
C 0.599593 -0.538481 0.956644
C -0.0472046 0.0477774 2.26056
O -0.202637 1.32879 2.30151
O -0.354282 -0.829001 3.16051
H 0.819479 0.256271 0.233382
H 1.52571 -1.0711 1.21952
H -0.0858927 -1.2736 0.509596
