15
Coordinates from XML
N -0.343134 0.577251 -3.51905
C 0.392895 -0.661019 -3.19916
H -0.988594 0.835926 -2.76129
H -0.900085 0.471074 -4.3772
H 0.298557 1.36818 -3.6625
H -0.339589 -1.4582 -3.05933
H 0.960994 -0.484834 -2.28375
H 1.05708 -0.880666 -4.03725
C 0.367712 -0.878062 0.729709
C -0.023619 0.0673574 1.91937
O 0.752001 0.0471021 2.95127
O -1.09412 0.768509 1.7313
H 1.29016 -1.42897 0.950326
H -0.454303 -1.58522 0.543432
H 0.497881 -0.278588 -0.183434
