15
Coordinates from XML
N 0.133399 0.4432 -2.97751
C -0.152541 -0.507492 -4.06921
H 0.0714243 -0.012719 -2.05771
H -0.532076 1.22743 -2.97962
H 1.07872 0.839304 -3.06353
H -1.16415 -0.890394 -3.92214
H 0.58364 -1.31164 -4.01316
H -0.0711613 0.0341377 -5.01355
C 1.37529 -0.47474 1.9112
C -0.107676 0.0379922 1.89812
O -0.650479 0.262304 3.04785
O -0.627383 0.17838 0.722046
H 1.75594 -0.555611 2.9367
H 1.42368 -1.45615 1.41624
H 2.00414 0.216591 1.3309
