15
Coordinates from XML
N -0.0151445 -0.273652 -3.06294
C 0.0172021 0.313352 -4.41636
H 0.158742 -1.28696 -3.08969
H -0.928594 -0.128211 -2.61312
H 0.699743 0.147086 -2.4548
H -0.760082 -0.172021 -5.00951
H 1.00678 0.126629 -4.83781
H -0.173067 1.38405 -4.3206
C -0.948024 0.444696 0.995816
C 0.0706347 -0.0394724 2.08676
O -0.312207 -1.01503 2.84077
O 1.19326 0.602506 2.10997
H -1.86837 -0.151384 1.02291
H -1.18478 1.50548 1.16657
H -0.48076 0.36868 0.00282567
