15
Coordinates from XML
N -0.062434494755 -0.000697352685 -2.568093714793
C 0.071659296325 0.000724083924 -4.03758292357
H -0.850221310928 -0.587895494626 -2.264238462469
H -0.225809277605 0.947943954476 -2.205783956883
H 0.786653502195 -0.363142989343 -2.114660330597
H -0.856183628035 0.393961284946 -4.457176228385
H 0.242331639089 -1.028708701128 -4.358363381948
H 0.919971195421 0.637859707414 -4.29487400218
C 1.361819640267 -0.499140460279 1.650881359118
C -0.107861183467 0.037598533219 1.770012678495
O -0.806243552049 0.052288368893 0.684256601356
O -0.458807841423 0.411774768797 2.957356219289
H 1.585761669776 -0.811899133364 0.623691584775
H 2.062153099121 0.290245202331 1.962150996377
H 1.496210002129 -1.346814212811 2.339018177234
