15
Coordinates from XML
N 0.636812659984 -0.079047812566 -3.044314480233
C -0.729287998435 0.090493369089 -3.575733786234
H 0.785881012273 0.494714098124 -2.203889804139
H 1.34529181044 0.19684455173 -3.737005397376
H 0.820111911604 -1.057946617851 -2.787258818229
H -0.860860730569 1.144236881471 -3.828517797341
H -1.430784762795 -0.217222157403 -2.797932748469
H -0.82371199265 -0.540533011149 -4.461546067002
C -1.448235736064 -0.140998317965 1.785313147634
C 0.113564257807 0.010477312675 1.794181885842
O 0.680097273282 0.075520252903 2.952469303268
O 0.665218889068 0.055750555159 0.625172220703
H -1.846045344639 -0.188004496412 2.806403147192
H -1.891919606068 0.711936538139 1.250399865179
H -1.721992318959 -1.05246856883 1.233567594277
