15
Coordinates from XML
N 0.0105729 -0.0693959 -2.46517
C -0.0119809 0.0796185 -3.93305
H -0.515762 0.684195 -2.00386
H 0.971971 -0.0434058 -2.10059
H -0.407233 -0.962606 -2.17271
H 0.442501 1.04139 -4.17807
H -1.05408 0.0440805 -4.25637
H 0.560287 -0.745541 -4.36129
C 0.908264 1.08992 1.38756
C -0.0759538 -0.0815984 1.73556
O -1.30789 0.243065 1.94474
O 0.46451 -1.25599 1.77629
H 0.381559 2.05149 1.35522
H 1.70817 1.12728 2.14204
H 1.38315 0.889273 0.415774
