15
Coordinates from XML
N -0.194848083015 -0.20946604829 -2.770077611763
C 0.222878416691 0.239801592397 -4.112107737533
H 0.199359372764 -1.13213570964 -2.544203935046
H -1.218327747231 -0.285146544841 -2.701946492751
H 0.116092621299 0.446690757657 -2.041590669938
H -0.135116929715 -0.494227155141 -4.836419590079
H 1.312878348068 0.299798230975 -4.119953944202
H -0.22548881722 1.218944488928 -4.2910479279
C -1.453541853571 -0.02291278494 1.905309668933
C 0.113811872195 0.007184992221 1.836468081311
O 0.642860671264 0.969040953942 1.156938493899
O 0.70765374035 -0.948297857725 2.474716038576
H -1.888993017042 0.82157885825 1.357310579974
H -1.816687241395 -0.97080465487 1.480913750918
H -1.771912584879 0.008480037767 2.957829696613
