15
Coordinates from XML
N -0.166150030373 -0.275838296149 -2.632254471113
C 0.190282897268 0.315596715806 -3.936302742738
H 0.223152886717 -1.222382801934 -2.531088877589
H -1.185975211843 -0.346981509285 -2.519226808731
H 0.19274212621 0.291338958158 -1.852879412402
H -0.216720437639 -0.328890715133 -4.717693020855
H 1.27933548455 0.36366959817 -3.994736210166
H -0.249739197349 1.313637672372 -3.981782246544
C 0.401565771683 -1.397354047227 1.816162663716
C -0.03126003861 0.109929337253 1.761378004665
O -0.265167089564 0.684294145353 2.893726246944
O -0.108080542673 0.613943076877 0.572670784071
H 0.460729070524 -1.753634970775 2.851851062933
H -0.324133765569 -2.003357022016 1.253485099578
H 1.378033762433 -1.513382692487 1.323018205105
