15
Coordinates from XML
N 0.0747278 0.0647467 -4.10256
C -0.0853917 -0.0740319 -2.64226
H 0.942479 0.563745 -4.33867
H -0.706651 0.589677 -4.51702
H 0.110241 -0.853499 -4.5646
H -0.116094 0.929101 -2.21288
H 0.770361 -0.636794 -2.26444
H -1.01917 -0.608726 -2.45803
C 1.09717 0.613621 1.12573
C -0.0820688 -0.0505548 1.91978
O 0.246559 -0.84754 2.88084
O -1.26629 0.277492 1.51611
H 2.06878 0.304222 1.52987
H 1.02573 0.328766 0.0654313
H 1.00007 1.70812 1.17854
