15
Coordinates from XML
N -0.284031804281 -0.000584102574 -4.501975443693
C 0.325249500902 0.000774529269 -3.158042355599
H 0.319961537952 0.471275400371 -5.187743911922
H -1.190917347515 0.484635410041 -4.502779216781
H -0.445445084001 -0.958751716267 -4.839287876316
H 0.470319693288 1.040319453398 -2.858229880877
H 1.279302385502 -0.525798753248 -3.223346884739
H -0.360231554067 -0.511378467143 -2.480112704718
C 0.387572825002 0.6706739892 0.873030785952
C -0.026684055702 -0.048900559165 2.204513586512
O 0.606355667328 0.305275710505 3.272521012577
O -0.966561011357 -0.928859098148 2.080980701145
H 1.175590960139 1.411952064533 1.053643870781
H 0.739521493864 -0.080071338314 0.149844051625
H -0.494675341769 1.160082658379 0.434554826177
