15
Coordinates from XML
N -0.000385815 -0.580894 -2.91068
C 0.000426033 0.665264 -3.70091
H -0.772311 -1.20079 -3.18924
H -0.10598 -0.38748 -1.90603
H 0.876608 -1.10381 -3.03463
H -0.951129 1.17127 -3.52746
H 0.114964 0.394029 -4.75214
H 0.838095 1.27652 -3.35967
C -0.0168165 1.44157 1.97798
C 0.000479198 -0.11383 1.77138
O -0.0305606 -0.837901 2.83983
O 0.0464592 -0.501181 0.538173
H -0.0715708 1.69768 3.04311
H 0.89205 1.87594 1.53553
H -0.878238 1.86967 1.4443
