15
Coordinates from XML
N -0.678306 0.0573723 -2.44057
C 0.776525 -0.0656264 -2.65438
H -0.919626 0.963106 -2.01731
H -1.02875 -0.679811 -1.81476
H -1.19498 -0.0175807 -3.32676
H 1.26546 0.0216982 -1.68232
H 1.08515 0.740343 -3.32291
H 0.966675 -1.04245 -3.10319
C -0.465294 0.341697 2.71523
C 0.0346512 -0.0213775 1.27284
O -0.251099 0.818601 0.334974
O 0.683585 -1.13667 1.18362
H -0.992146 1.30372 2.71986
H -1.13489 -0.452708 3.07724
H 0.395511 0.381942 3.399
