15
Coordinates from XML
N -0.20008230635 -0.112096520109 -2.695264064218
C 0.229185128174 0.128219103991 -4.086436077475
H 0.232811389039 0.559870184214 -2.048115289381
H 0.059898223873 -1.056185541385 -2.380643572496
H -1.220074416733 -0.0231662369 -2.597148828467
H 1.314726432679 0.019836358555 -4.124380598895
H -0.074053826674 1.140809199504 -4.359325147854
H -0.261776912873 -0.612830518897 -4.720135778175
C 0.715526188789 -0.890231025427 2.717471151151
C -0.054726094936 0.066174973191 1.740618179986
O 0.024556143306 -0.209488308958 0.481831436873
O -0.689240637605 1.037057493208 2.313099204417
H 1.216229976688 -1.696365102075 2.167443497358
H 1.457206633847 -0.308131468047 3.284529955617
H 0.007169851077 -1.315240731905 3.443929607473
