15
Coordinates from XML
N -0.200082 -0.112097 -2.69526
C 0.229185 0.128219 -4.08644
H 0.232811 0.55987 -2.04812
H 0.0598982 -1.05619 -2.38064
H -1.22007 -0.0231662 -2.59715
H 1.31473 0.0198364 -4.12438
H -0.0740538 1.14081 -4.35933
H -0.261777 -0.612831 -4.72014
C 0.715526 -0.890231 2.71747
C -0.0547261 0.066175 1.74062
O 0.0245561 -0.209488 0.481831
O -0.689241 1.03706 2.3131
H 1.21623 -1.69637 2.16744
H 1.45721 -0.308131 3.28453
H 0.00716985 -1.31524 3.44393
