15
Coordinates from XML
N -0.02767418904 -0.025799743626 -2.579290683906
C 0.031646637982 0.029382577055 -4.052660172855
H -0.852875186453 0.470868017955 -2.218593874279
H 0.803554957213 0.40589476985 -2.154346024623
H -0.078791375787 -0.996263454833 -2.242383696074
H 0.084245027156 1.079614928792 -4.345631070426
H -0.873234679404 -0.441761478161 -4.441214018133
H 0.924215476277 -0.51234536357 -4.371447385977
C -0.202183314579 -1.187135534994 0.957123696488
C 0.011565285964 0.096043301661 1.834623754025
O -0.633034869813 1.155046401033 1.474314084775
O 0.821430127655 -0.052318517826 2.83215260302
H -0.909825689596 -0.994227267904 0.14157754681
H 0.765436868977 -1.508780001106 0.543914932302
H -0.575334865508 -2.004026222839 1.592412107126
