15
Coordinates from XML
N -0.214343 0.49131 -3.01634
C 0.245196 -0.562549 -3.94132
H -0.876958 0.118975 -2.32348
H -0.688793 1.25183 -3.52071
H 0.572667 0.906137 -2.50015
H -0.631338 -0.960688 -4.45587
H 0.737388 -1.33589 -3.34848
H 0.94163 -0.106537 -4.64758
C -1.37841 -0.307663 2.2222
C 0.10923 0.0257198 1.85069
O 0.82656 0.570129 2.77583
O 0.45399 -0.284394 0.643247
H -1.59664 -0.0334704 3.26156
H -2.05199 0.236014 1.54308
H -1.55861 -1.3824 2.07184
