15
Coordinates from XML
N -0.089408783614 -0.368578779573 -2.368406916788
C 1.153591216386 -0.337578779573 -3.112406916788
H -0.192408783614 0.472421220427 -1.740406916788
H -0.064408783614 -1.081578779573 -1.591406916788
H -0.969408783614 -0.487578779573 -2.862406916788
H 1.974591216386 -0.205578779573 -2.405406916788
H 1.109591216386 0.498421220427 -3.813406916788
H 1.252591216386 -1.284578779573 -3.647406916788
C -0.29799010894 0.324083150882 2.890411967845
C -0.26699010894 0.186083150882 1.401411967845
O -0.34199010894 1.230083150882 0.685411967845
O -0.15999010894 -0.972916849118 0.897411967845
H -0.74399010894 1.279083150882 3.184411967845
H -0.88699010894 -0.482916849118 3.336411967845
H 0.72100989106 0.277083150882 3.283411967845
