15
Coordinates from XML
N -0.088938421464 -0.370961266114 -2.376034963824
C 1.154061578536 -0.339961266114 -3.120034963824
H -0.191938421464 0.470038733886 -1.748034963824
H -0.063938421464 -1.083961266114 -1.599034963824
H -0.968938421464 -0.489961266114 -2.870034963824
H 1.975061578536 -0.207961266114 -2.413034963824
H 1.110061578536 0.496038733886 -3.821034963824
H 1.253061578536 -1.286961266114 -3.655034963824
C -0.298245561815 0.32537707523 2.894554747085
C -0.267245561815 0.18737707523 1.405554747085
O -0.342245561815 1.23137707523 0.689554747085
O -0.160245561815 -0.97162292477 0.901554747085
H -0.744245561815 1.28037707523 3.188554747085
H -0.887245561815 -0.48162292477 3.340554747085
H 0.720754438185 0.27837707523 3.287554747085
