15
Coordinates from XML
N -0.087057 -0.380491 -2.40655
C 1.15594 -0.349491 -3.15055
H -0.190057 0.460509 -1.77855
H -0.062057 -1.09349 -1.62955
H -0.967057 -0.499491 -2.90055
H 1.97694 -0.217491 -2.44355
H 1.11194 0.486509 -3.85155
H 1.25494 -1.29649 -3.68555
C -0.299267 0.330553 2.91113
C -0.268267 0.192553 1.42213
O -0.343267 1.23655 0.706126
O -0.161267 -0.966447 0.918126
H -0.745267 1.28555 3.20513
H -0.888267 -0.476447 3.35713
H 0.719733 0.283553 3.30413
