15
Coordinates from XML
N -0.087056972866 -0.380491212277 -2.406547151971
C 1.155943027134 -0.349491212277 -3.150547151971
H -0.190056972866 0.460508787723 -1.778547151971
H -0.062056972866 -1.093491212277 -1.629547151971
H -0.967056972866 -0.499491212277 -2.900547151971
H 1.976943027134 -0.217491212277 -2.443547151971
H 1.111943027134 0.486508787723 -3.851547151971
H 1.254943027134 -1.296491212277 -3.685547151971
C -0.299267373317 0.330552772618 2.911125864047
C -0.268267373317 0.192552772618 1.422125864047
O -0.343267373317 1.236552772618 0.706125864047
O -0.161267373317 -0.966447227382 0.918125864047
H -0.745267373317 1.285552772618 3.205125864047
H -0.888267373317 -0.476447227382 3.357125864047
H 0.719732626683 0.283552772618 3.304125864047
