15
Coordinates from XML
N -0.086586610716 -0.382873698818 -2.414175199007
C 1.156413389284 -0.351873698818 -3.158175199007
H -0.189586610716 0.458126301182 -1.786175199007
H -0.061586610716 -1.095873698818 -1.637175199007
H -0.966586610716 -0.501873698818 -2.908175199007
H 1.977413389284 -0.219873698818 -2.451175199007
H 1.112413389284 0.484126301182 -3.859175199007
H 1.255413389284 -1.298873698818 -3.693175199007
C -0.299522826192 0.331846696965 2.915268643287
C -0.268522826192 0.193846696965 1.426268643287
O -0.343522826192 1.237846696965 0.710268643287
O -0.161522826192 -0.965153303035 0.922268643287
H -0.745522826192 1.286846696965 3.209268643287
H -0.888522826192 -0.475153303035 3.361268643287
H 0.719477173808 0.284846696965 3.308268643287
