15
Coordinates from XML
N -0.086116248566 -0.385256185359 -2.421803246044
C 1.156883751434 -0.354256185359 -3.165803246044
H -0.189116248566 0.455743814641 -1.793803246044
H -0.061116248566 -1.098256185359 -1.644803246044
H -0.966116248566 -0.504256185359 -2.915803246044
H 1.977883751434 -0.222256185359 -2.458803246044
H 1.112883751434 0.481743814641 -3.866803246044
H 1.255883751434 -1.301256185359 -3.700803246044
C -0.299778279068 0.333140621313 2.919411422527
C -0.268778279068 0.195140621313 1.430411422527
O -0.343778279068 1.239140621313 0.714411422527
O -0.161778279068 -0.963859378687 0.926411422527
H -0.745778279068 1.288140621313 3.213411422527
H -0.888778279068 -0.473859378687 3.365411422527
H 0.719221720932 0.286140621313 3.312411422527
