15
Coordinates from XML
N -0.085175524267 -0.390021158441 -2.437059340117
C 1.157824475733 -0.359021158441 -3.181059340117
H -0.188175524267 0.450978841559 -1.809059340117
H -0.060175524267 -1.103021158441 -1.660059340117
H -0.965175524267 -0.509021158441 -2.931059340117
H 1.978824475733 -0.227021158441 -2.474059340117
H 1.113824475733 0.476978841559 -3.882059340117
H 1.256824475733 -1.306021158441 -3.716059340117
C -0.300289184819 0.335728470007 2.927696981008
C -0.269289184819 0.197728470007 1.438696981008
O -0.344289184819 1.241728470007 0.722696981008
O -0.162289184819 -0.961271529993 0.934696981008
H -0.746289184819 1.290728470007 3.221696981008
H -0.889289184819 -0.471271529993 3.373696981008
H 0.718710815181 0.288728470007 3.320696981008
