15
Coordinates from XML
N -0.084705162117 -0.392403644982 -2.444687387153
C 1.158294837883 -0.361403644982 -3.188687387153
H -0.187705162117 0.448596355018 -1.816687387153
H -0.059705162117 -1.105403644982 -1.667687387153
H -0.964705162117 -0.511403644982 -2.938687387153
H 1.979294837883 -0.229403644982 -2.481687387153
H 1.114294837883 0.474596355018 -3.889687387153
H 1.257294837883 -1.308403644982 -3.723687387153
C -0.300544637694 0.337022394354 2.931839760248
C -0.269544637694 0.199022394354 1.442839760248
O -0.344544637694 1.243022394354 0.726839760248
O -0.162544637694 -0.959977605646 0.938839760248
H -0.746544637694 1.292022394354 3.225839760248
H -0.889544637694 -0.469977605646 3.377839760248
H 0.718455362306 0.290022394354 3.324839760248
