15
Coordinates from XML
N -0.0828237 -0.401934 -2.4752
C 1.16018 -0.370934 -3.2192
H -0.185824 0.439066 -1.8472
H -0.0578237 -1.11493 -1.6982
H -0.962824 -0.520934 -2.9692
H 1.98118 -0.238934 -2.5122
H 1.11618 0.465066 -3.9202
H 1.25918 -1.31793 -3.7542
C -0.301566 0.342198 2.94841
C -0.270566 0.204198 1.45941
O -0.345566 1.2482 0.743411
O -0.163566 -0.954802 0.955411
H -0.747566 1.2972 3.24241
H -0.890566 -0.464802 3.39441
H 0.717434 0.295198 3.34141
