15
Coordinates from XML
N -0.0823534 -0.404316 -2.48283
C 1.16065 -0.373316 -3.22683
H -0.185353 0.436684 -1.85483
H -0.0573534 -1.11732 -1.70583
H -0.962353 -0.523316 -2.97683
H 1.98165 -0.241316 -2.51983
H 1.11665 0.462684 -3.92783
H 1.25965 -1.32032 -3.76183
C -0.301822 0.343492 2.95255
C -0.270822 0.205492 1.46355
O -0.345822 1.24949 0.747554
O -0.163822 -0.953508 0.959554
H -0.747822 1.29849 3.24655
H -0.890822 -0.463508 3.39855
H 0.717178 0.296492 3.34555
