15
Coordinates from XML
N -0.081412627069 -0.409081050768 -2.49808371641
C 1.161587372931 -0.378081050768 -3.24208371641
H -0.184412627069 0.431918949232 -1.87008371641
H -0.056412627069 -1.122081050768 -1.72108371641
H -0.961412627069 -0.528081050768 -2.99208371641
H 1.982587372931 -0.246081050768 -2.53508371641
H 1.117587372931 0.457918949232 -3.94308371641
H 1.260587372931 -1.325081050768 -3.77708371641
C -0.302332807822 0.346079864784 2.96083921493
C -0.271332807822 0.208079864784 1.47183921493
O -0.346332807822 1.252079864784 0.75583921493
O -0.164332807822 -0.950920135216 0.96783921493
H -0.748332807822 1.301079864784 3.25483921493
H -0.891332807822 -0.460920135216 3.40683921493
H 0.716667192178 0.299079864784 3.35383921493
