15
Coordinates from XML
N -0.080942264919 -0.411463537309 -2.505711763446
C 1.162057735081 -0.380463537309 -3.249711763446
H -0.183942264919 0.429536462691 -1.877711763446
H -0.055942264919 -1.124463537309 -1.728711763446
H -0.960942264919 -0.530463537309 -2.999711763446
H 1.983057735081 -0.248463537309 -2.542711763446
H 1.118057735081 0.455536462691 -3.950711763446
H 1.261057735081 -1.327463537309 -3.784711763446
C -0.302588260697 0.347373789131 2.964981994171
C -0.271588260697 0.209373789131 1.475981994171
O -0.346588260697 1.253373789131 0.759981994171
O -0.164588260697 -0.949626210869 0.971981994171
H -0.748588260697 1.302373789131 3.258981994171
H -0.891588260697 -0.459626210869 3.410981994171
H 0.716411739303 0.300373789131 3.357981994171
