15
Coordinates from XML
N -0.0795312 -0.418611 -2.5286
C 1.16347 -0.387611 -3.2726
H -0.182531 0.422389 -1.9006
H -0.0545312 -1.13161 -1.7516
H -0.959531 -0.537611 -3.0226
H 1.98447 -0.255611 -2.5656
H 1.11947 0.448389 -3.9736
H 1.26247 -1.33461 -3.8076
C -0.303355 0.351256 2.97741
C -0.272355 0.213256 1.48841
O -0.347355 1.25726 0.77241
O -0.165355 -0.945744 0.98441
H -0.749355 1.30626 3.27141
H -0.892355 -0.455744 3.42341
H 0.715645 0.304256 3.37041
