15
Coordinates from XML
N -0.07953117847 -0.418610996932 -2.528595904556
C 1.16346882153 -0.387610996932 -3.272595904556
H -0.18253117847 0.422389003068 -1.900595904556
H -0.05453117847 -1.131610996932 -1.751595904556
H -0.95953117847 -0.537610996932 -3.022595904556
H 1.98446882153 -0.255610996932 -2.565595904556
H 1.11946882153 0.448389003068 -3.973595904556
H 1.26246882153 -1.334610996932 -3.807595904556
C -0.303354619323 0.351255562173 2.977410331892
C -0.272354619323 0.213255562173 1.488410331892
O -0.347354619323 1.257255562173 0.772410331892
O -0.165354619323 -0.945744437827 0.984410331892
H -0.749354619323 1.306255562173 3.271410331892
H -0.892354619323 -0.455744437827 3.423410331892
H 0.715645380677 0.304255562173 3.370410331892
