15
Coordinates from XML
N -0.07906081632 -0.420993483473 -2.536223951592
C 1.16393918368 -0.389993483473 -3.280223951592
H -0.18206081632 0.420006516527 -1.908223951592
H -0.05406081632 -1.133993483473 -1.759223951592
H -0.95906081632 -0.539993483473 -3.030223951592
H 1.98493918368 -0.257993483473 -2.573223951592
H 1.11993918368 0.446006516527 -3.981223951592
H 1.26293918368 -1.336993483473 -3.815223951592
C -0.303610072199 0.35254948652 2.981553111132
C -0.272610072199 0.21454948652 1.492553111132
O -0.347610072199 1.25854948652 0.776553111132
O -0.165610072199 -0.94445051348 0.988553111132
H -0.749610072199 1.30754948652 3.275553111132
H -0.892610072199 -0.45445051348 3.427553111132
H 0.715389927801 0.30554948652 3.374553111132
