15
Coordinates from XML
N -0.078590454171 -0.423375970014 -2.543851998629
C 1.164409545829 -0.392375970014 -3.287851998629
H -0.181590454171 0.417624029986 -1.915851998629
H -0.053590454171 -1.136375970014 -1.766851998629
H -0.958590454171 -0.542375970014 -3.037851998629
H 1.985409545829 -0.260375970014 -2.580851998629
H 1.120409545829 0.443624029986 -3.988851998629
H 1.263409545829 -1.339375970014 -3.822851998629
C -0.303865525074 0.353843410867 2.985695890372
C -0.272865525074 0.215843410867 1.496695890372
O -0.347865525074 1.259843410867 0.780695890372
O -0.165865525074 -0.943156589133 0.992695890372
H -0.749865525074 1.308843410867 3.279695890372
H -0.892865525074 -0.453156589133 3.431695890372
H 0.715134474926 0.306843410867 3.378695890372
