15
Coordinates from XML
N -0.078120092021 -0.425758456555 -2.551480045666
C 1.164879907979 -0.394758456555 -3.295480045666
H -0.181120092021 0.415241543445 -1.923480045666
H -0.053120092021 -1.138758456555 -1.774480045666
H -0.958120092021 -0.544758456555 -3.045480045666
H 1.985879907979 -0.262758456555 -2.588480045666
H 1.120879907979 0.441241543445 -3.996480045666
H 1.263879907979 -1.341758456555 -3.830480045666
C -0.30412097795 0.355137335215 2.989838669612
C -0.27312097795 0.217137335215 1.500838669612
O -0.34812097795 1.261137335215 0.784838669612
O -0.16612097795 -0.941862664785 0.996838669612
H -0.75012097795 1.310137335215 3.283838669612
H -0.89312097795 -0.451862664785 3.435838669612
H 0.71487902205 0.308137335215 3.382838669612
