15
Coordinates from XML
N -0.555337809523 -0.400339007241 -2.602990722834
C 0.63597825299 0.458446766928 -2.746638671941
H -1.371424331423 0.14051738999 -2.288006776657
H -0.396727489117 -1.149386828623 -1.91622283079
H -0.805446994616 -0.846546194937 -3.495326781267
H 0.848702558977 0.90023662413 -1.771366083525
H 0.405209660745 1.228945653755 -3.484770321602
H 1.462852449669 -0.170826907161 -3.081403195099
C 1.281822218576 0.658764666696 1.249423760311
C -0.099167132451 -0.05554052557 1.461270985224
O -0.40833409611 -0.976791256172 0.611251654262
O -0.782624995475 0.36535541906 2.47551358398
H 1.812588911857 0.243098165378 0.384209954555
H 1.113688142218 1.736069035251 1.10234658715
H 1.893844567367 0.543140276709 2.156178129233
