15
Coordinates from XML
N 0.258224 0.612304 -3.47044
C -0.295588 -0.700827 -3.08787
H 1.27969 0.569981 -3.58246
H 0.0542783 1.32666 -2.75912
H -0.137464 0.94078 -4.3612
H 0.160968 -0.992518 -2.14021
H -0.0470169 -1.41131 -3.87855
H -1.37678 -0.590161 -2.98518
C 0.272977 1.42842 1.83282
C -0.0187056 -0.112442 1.77896
O 0.28176 -0.718173 0.679133
O -0.535879 -0.609037 2.85548
H 0.723327 1.77788 0.89572
H -0.666984 1.96876 2.01988
H 0.947122 1.64161 2.67556
