15
Coordinates from XML
N 0.0124366 0.248454 -4.19276
C -0.0143912 -0.284429 -2.81701
H 0.930404 0.103039 -4.63313
H -0.181201 1.25849 -4.20725
H -0.691567 -0.210129 -4.78606
H 0.750734 0.23942 -2.24103
H 0.197046 -1.35417 -2.86903
H -1.00925 -0.100376 -2.40695
C -1.18193 0.158549 1.0951
C 0.0930373 -0.0063972 1.99482
O 0.692824 1.08034 2.3499
O 0.405357 -1.22827 2.28193
H -1.3963 1.21724 0.904575
H -1.02343 -0.367928 0.142115
H -2.0415 -0.314839 1.59229
