15
Coordinates from XML
N -0.349106 -0.564823 -2.87563
C 0.399616 0.646812 -2.48997
H 0.198454 -1.41671 -2.69616
H -0.587659 -0.555351 -3.87608
H -1.22865 -0.645476 -2.34855
H 1.31701 0.674671 -3.0809
H 0.621601 0.576871 -1.42339
H -0.231521 1.51154 -2.70372
C -0.59396 1.10814 2.19654
C 0.0411343 -0.0895088 1.40627
O -0.738382 -1.08421 1.14219
O 1.29086 0.05498 1.10585
H -1.65549 0.925652 2.40375
H -0.0477764 1.24915 3.14115
H -0.479422 2.03199 1.61042
