15
Coordinates from XML
N 0.508152506426 -0.368157787854 -3.509228103745
C -0.581744259233 0.421697625267 -2.904550365962
H 1.06578398435 0.19980514466 -4.160536772595
H 0.140988582455 -1.171797523019 -4.035758101939
H 1.148026792176 -0.734364033229 -2.792030094627
H -1.222357154702 0.780078796771 -3.712488843861
H -0.129670434606 1.25482787899 -2.362993122987
H -1.133133392481 -0.233591308464 -2.22754222933
C 0.263931177364 1.326007524723 1.214968475701
C -0.0257458724 -0.101828862543 1.797731892611
O -1.003845443372 -0.195357262091 2.635224370669
O 0.759073960653 -1.036656838402 1.369817670991
H -0.446217523796 2.0640569444 1.607471633701
H 1.291484457398 1.621549442889 1.474342137245
H 0.2000444435 1.290538750785 0.117332701935
