15
Coordinates from XML
N 0.100204 -0.461518 -3.01207
C -0.114585 0.528255 -4.08519
H -0.103003 -1.41608 -3.33651
H -0.50609 -0.27417 -2.20263
H 1.07338 -0.448315 -2.67938
H -1.15991 0.465219 -4.39326
H 0.553875 0.276227 -4.91066
H 0.116551 1.51534 -3.68021
C 1.03753 -0.890606 2.4049
C -0.0831809 0.0710016 1.87426
O -0.907568 0.535854 2.7524
O -0.0563521 0.291455 0.600044
H 0.964431 -1.02022 3.49161
H 0.944198 -1.86633 1.90516
H 2.02354 -0.480149 2.14139
