15
Coordinates from XML
N -0.299794 -0.163298 -2.55225
C 0.343215 0.186771 -3.83341
H -0.253763 -1.17515 -2.374
H -1.29203 0.107419 -2.54466
H 0.156478 0.31124 -1.76197
H -0.183547 -0.3453 -4.62777
H 1.38822 -0.124221 -3.77856
H 0.261585 1.26758 -3.96367
C -0.118022 -1.2453 0.967238
C 0.015376 0.0972825 1.76843
O 1.2098 0.448952 2.10974
O -1.10064 0.70801 2.00181
H 0.864747 -1.69991 0.79236
H -0.756794 -1.94159 1.53083
H -0.616303 -1.0475 0.00664863
