15
Coordinates from XML
N -0.0347795 -0.029948 -3.73226
C 0.0399836 0.0344207 -2.25996
H 0.611015 0.640215 -4.16995
H -0.981846 0.187701 -4.06927
H 0.209442 -0.966884 -4.07928
H -0.228735 1.04781 -1.95596
H 1.06396 -0.204917 -1.96678
H -0.664499 -0.696033 -1.85758
C 1.12842 0.863147 1.33999
C -0.0851071 -0.0706076 1.68306
O 0.146311 -1.03818 2.5059
O -1.19495 0.236413 1.09403
H 2.0296 0.555193 1.88416
H 1.31647 0.829487 0.256477
H 0.871838 1.90173 1.59621
