15
Coordinates from XML
N -0.020577739106 0.124383422927 -2.641679217329
C 0.023385023792 -0.142277626578 -4.092313857807
H -0.732156016013 0.830476757987 -2.411839494872
H 0.883717602692 0.472837545542 -2.297136521522
H -0.246695497021 -0.727073178356 -2.110819993346
H 0.266613981936 0.794674186862 -4.596840867205
H -0.960023318029 -0.507250326232 -4.39474396832
H 0.793403551197 -0.895402816594 -4.270211287852
C -1.197862788196 0.825702604671 1.822351704231
C 0.094047783312 -0.06477857861 1.80644323171
O 0.652868061424 -0.290671436419 2.948157861827
O 0.460142027821 -0.476338085706 0.636165541534
H -1.458146421102 1.125353670796 2.844872374779
H -1.029756655992 1.719071671201 1.202579565226
H -2.030826030342 0.265966669426 1.371783440182
