15
Coordinates from XML
N -0.0205777 0.124383 -2.64168
C 0.023385 -0.142278 -4.09231
H -0.732156 0.830477 -2.41184
H 0.883718 0.472838 -2.29714
H -0.246695 -0.727073 -2.11082
H 0.266614 0.794674 -4.59684
H -0.960023 -0.50725 -4.39474
H 0.793404 -0.895403 -4.27021
C -1.19786 0.825703 1.82235
C 0.0940478 -0.0647786 1.80644
O 0.652868 -0.290671 2.94816
O 0.460142 -0.476338 0.636166
H -1.45815 1.12535 2.84487
H -1.02976 1.71907 1.20258
H -2.03083 0.265967 1.37178
