15
Coordinates from XML
N -0.115404408444 0.262770104623 -3.917314281625
C 0.132313665643 -0.300821595823 -2.57627667926
H -1.092940953025 0.564691968214 -4.022210574671
H 0.076081303408 -0.427686447853 -4.655205182301
H 0.482026742001 1.080672997344 -4.096283492821
H -0.528059161168 -1.160520946946 -2.44817014044
H -0.08766499883 0.476138240623 -1.841631316022
H 1.180929819615 -0.600655035874 -2.528551949215
C 1.430294251874 0.177583041683 1.588366372159
C -0.112950517106 -0.014410490293 1.797595454136
O -0.839549578903 -0.049718649296 0.730999410469
O -0.489217306659 -0.115103673041 3.030981152891
H 1.679293771625 0.239959066288 0.521972765931
H 1.754145918272 1.095113354732 2.101926191278
H 1.967329250142 -0.663919615562 2.050546563236
