15
Coordinates from XML
N -0.613655638175 0.244393093625 -2.723760143102
C 0.702414056716 -0.279912179889 -3.136611494505
H -1.035177284521 0.822675799077 -3.462438932723
H -0.536788948503 0.827714476621 -1.880132449058
H -1.271687374168 -0.517798214126 -2.514051428892
H 1.351572677624 0.572889815855 -3.343754852972
H 0.554202469606 -0.887050902729 -4.031696354545
H 1.094950157212 -0.881636878257 -2.314652628635
C -1.12097476734 -0.834597717163 1.178960541215
C 0.087330237847 0.063507886483 1.621281783292
O 0.32946110432 0.121436711465 2.88810334839
O 0.712114395488 0.654228876212 0.655026348884
H -1.593207527835 -1.315168020157 2.044486541102
H -1.858147072426 -0.214189437468 0.647776934441
H -0.766025256118 -1.599394761243 0.472391247806
