15
Coordinates from XML
N 0.00658152 -0.0952585 -2.42934
C -0.00745524 0.109241 -3.89063
H 0.812423 -0.66415 -2.13827
H -0.844023 -0.57747 -2.11024
H 0.061933 0.800097 -1.92615
H -0.0668783 -0.872288 -4.3646
H 0.91622 0.622414 -4.16492
H -0.881247 0.716543 -4.13444
C 0.514167 1.36105 1.70691
C -0.0415055 -0.106367 1.69391
O -0.354514 -0.614665 2.83867
O -0.122895 -0.649924 0.523068
H 0.541493 1.76374 2.7268
H 1.52595 1.36915 1.27481
H -0.119634 1.99548 1.06978
