15
Coordinates from XML
N -0.234235609577 -0.237055625737 -2.586595138156
C 0.268383377499 0.271382733191 -3.877426765055
H 0.442816452765 -0.872958489707 -2.145045828935
H -1.114283513387 -0.756004227808 -2.705288210439
H -0.414285868413 0.530480013787 -1.925996889329
H 0.4389267097 -0.586432055646 -4.530615321212
H 1.19856718701 0.809452347852 -3.685072455767
H -0.491122927047 0.936418151171 -4.292940478652
C 1.418642436022 -0.070421174793 1.415869845148
C -0.110056988546 0.003731472028 1.762023274054
O -0.458840479836 -0.426685345808 2.928175674982
O -0.859250276057 0.492161763019 0.827624341767
H 1.994154158391 -0.478645556527 2.255647175314
H 1.55829235133 -0.701417880621 0.525461779488
H 1.783846225914 0.936438492286 1.164864579868
