15
Coordinates from XML
N -0.234236 -0.237056 -2.5866
C 0.268383 0.271383 -3.87743
H 0.442816 -0.872958 -2.14505
H -1.11428 -0.756004 -2.70529
H -0.414286 0.53048 -1.926
H 0.438927 -0.586432 -4.53062
H 1.19857 0.809452 -3.68507
H -0.491123 0.936418 -4.29294
C 1.41864 -0.0704212 1.41587
C -0.110057 0.00373147 1.76202
O -0.45884 -0.426685 2.92818
O -0.85925 0.492162 0.827624
H 1.99415 -0.478646 2.25565
H 1.55829 -0.701418 0.525462
H 1.78385 0.936438 1.16486
