15
Coordinates from XML
N -0.502272 -0.355021 -3.40597
C 0.575041 0.406277 -2.74476
H -1.41509 -0.167622 -2.9708
H -0.334509 -1.36818 -3.34908
H -0.577926 -0.109337 -4.40188
H 0.6041 0.102169 -1.69678
H 0.339954 1.46816 -2.83905
H 1.51251 0.165398 -3.24963
C 0.00326462 -1.32627 1.08403
C -0.00338881 0.106191 1.72454
O -0.500635 1.05679 1.00626
O 0.498212 0.17535 2.91473
H -0.448997 -1.31397 0.0848278
H 1.0397 -1.68993 1.02054
H -0.547971 -2.01906 1.73696
