15
Coordinates from XML
N -0.33869 -0.123715 -2.9914
C 0.387777 0.141537 -4.24809
H -1.35641 -0.0638581 -3.12706
H -0.083513 0.553832 -2.26086
H -0.129531 -1.06322 -2.62877
H 0.125102 1.14786 -4.57962
H 0.075114 -0.606724 -4.97892
H 1.45639 0.0634753 -4.03892
C 0.17739 -0.788331 0.732701
C -0.019085 0.0641141 2.03538
O -1.0079 0.894215 2.03772
O 0.843776 -0.16183 2.97207
H -0.595445 -0.557232 -0.0105399
H 1.17324 -0.583273 0.312312
H 0.143536 -1.85752 0.989293
