15
Coordinates from XML
N -0.077649729871 -0.428140943096 -2.559108092702
C 1.165350270129 -0.397140943096 -3.303108092702
H -0.180649729871 0.412859056904 -1.931108092702
H -0.052649729871 -1.141140943096 -1.782108092702
H -0.957649729871 -0.547140943096 -3.053108092702
H 1.986350270129 -0.265140943096 -2.596108092702
H 1.121350270129 0.438859056904 -4.004108092702
H 1.264350270129 -1.344140943096 -3.838108092702
C -0.304376430825 0.356431259562 2.993981448853
C -0.273376430825 0.218431259562 1.504981448853
O -0.348376430825 1.262431259562 0.788981448853
O -0.166376430825 -0.940568740438 1.000981448853
H -0.750376430825 1.311431259562 3.287981448853
H -0.893376430825 -0.450568740438 3.439981448853
H 0.714623569175 0.309431259562 3.386981448853
