15
Coordinates from XML
N -0.077179367722 -0.430523429636 -2.566736139739
C 1.165820632278 -0.399523429636 -3.310736139739
H -0.180179367722 0.410476570364 -1.938736139739
H -0.052179367722 -1.143523429636 -1.789736139739
H -0.957179367722 -0.549523429636 -3.060736139739
H 1.986820632278 -0.267523429636 -2.603736139739
H 1.121820632278 0.436476570364 -4.011736139739
H 1.264820632278 -1.346523429636 -3.845736139739
C -0.304631883701 0.357725183909 2.998124228093
C -0.273631883701 0.219725183909 1.509124228093
O -0.348631883701 1.263725183909 0.793124228093
O -0.166631883701 -0.939274816091 1.005124228093
H -0.750631883701 1.312725183909 3.292124228093
H -0.893631883701 -0.449274816091 3.444124228093
H 0.714368116299 0.310725183909 3.391124228093
