15
Coordinates from XML
N -0.0771794 -0.430523 -2.56674
C 1.16582 -0.399523 -3.31074
H -0.180179 0.410477 -1.93874
H -0.0521794 -1.14352 -1.78974
H -0.957179 -0.549523 -3.06074
H 1.98682 -0.267523 -2.60374
H 1.12182 0.436477 -4.01174
H 1.26482 -1.34652 -3.84574
C -0.304632 0.357725 2.99812
C -0.273632 0.219725 1.50912
O -0.348632 1.26373 0.793124
O -0.166632 -0.939275 1.00512
H -0.750632 1.31273 3.29212
H -0.893632 -0.449275 3.44412
H 0.714368 0.310725 3.39112
