15
Coordinates from XML
N -0.076709005572 -0.432905916177 -2.574364186775
C 1.166290994428 -0.401905916177 -3.318364186775
H -0.179709005572 0.408094083823 -1.946364186775
H -0.051709005572 -1.145905916177 -1.797364186775
H -0.956709005572 -0.551905916177 -3.068364186775
H 1.987290994428 -0.269905916177 -2.611364186775
H 1.122290994428 0.434094083823 -4.019364186775
H 1.265290994428 -1.348905916177 -3.853364186775
C -0.304887336576 0.359019108256 3.002267007333
C -0.273887336576 0.221019108256 1.513267007333
O -0.348887336576 1.265019108256 0.797267007333
O -0.166887336576 -0.937980891744 1.009267007333
H -0.750887336576 1.314019108256 3.296267007333
H -0.893887336576 -0.447980891744 3.448267007333
H 0.714112663424 0.312019108256 3.395267007333
