15
Coordinates from XML
N -0.0762386 -0.435288 -2.58199
C 1.16676 -0.404288 -3.32599
H -0.179239 0.405712 -1.95399
H -0.0512386 -1.14829 -1.80499
H -0.956239 -0.554288 -3.07599
H 1.98776 -0.272288 -2.61899
H 1.12276 0.431712 -4.02699
H 1.26576 -1.35129 -3.86099
C -0.305143 0.360313 3.00641
C -0.274143 0.222313 1.51741
O -0.349143 1.26631 0.80141
O -0.167143 -0.936687 1.01341
H -0.751143 1.31531 3.30041
H -0.894143 -0.446687 3.45241
H 0.713857 0.313313 3.39941
