15
Coordinates from XML
N -0.0757683 -0.437671 -2.58962
C 1.16723 -0.406671 -3.33362
H -0.178768 0.403329 -1.96162
H -0.0507683 -1.15067 -1.81262
H -0.955768 -0.556671 -3.08362
H 1.98823 -0.274671 -2.62662
H 1.12323 0.429329 -4.03462
H 1.26623 -1.35367 -3.86862
C -0.305398 0.361607 3.01055
C -0.274398 0.223607 1.52155
O -0.349398 1.26761 0.805553
O -0.167398 -0.935393 1.01755
H -0.751398 1.31661 3.30455
H -0.894398 -0.445393 3.45655
H 0.713602 0.314607 3.40355
