15
Coordinates from XML
N -0.075768281273 -0.437670889259 -2.589620280848
C 1.167231718727 -0.406670889259 -3.333620280848
H -0.178768281273 0.403329110741 -1.961620280848
H -0.050768281273 -1.150670889259 -1.812620280848
H -0.955768281273 -0.556670889259 -3.083620280848
H 1.988231718727 -0.274670889259 -2.626620280848
H 1.123231718727 0.429329110741 -4.034620280848
H 1.266231718727 -1.353670889259 -3.868620280848
C -0.305398242327 0.36160695695 3.010552565814
C -0.274398242327 0.22360695695 1.521552565814
O -0.349398242327 1.26760695695 0.805552565814
O -0.167398242327 -0.93539304305 1.017552565814
H -0.751398242327 1.31660695695 3.304552565814
H -0.894398242327 -0.44539304305 3.456552565814
H 0.713601757673 0.31460695695 3.403552565814
