15
Coordinates from XML
N -0.0748276 -0.442436 -2.60488
C 1.16817 -0.411436 -3.34888
H -0.177828 0.398564 -1.97688
H -0.0498276 -1.15544 -1.82788
H -0.954828 -0.561436 -3.09888
H 1.98917 -0.279436 -2.64188
H 1.12417 0.424564 -4.04988
H 1.26717 -1.35844 -3.88388
C -0.305909 0.364195 3.01884
C -0.274909 0.226195 1.52984
O -0.349909 1.27019 0.813838
O -0.167909 -0.932805 1.02584
H -0.751909 1.31919 3.31284
H -0.894909 -0.442805 3.46484
H 0.713091 0.317195 3.41184
