15
Coordinates from XML
N -0.0738868 -0.447201 -2.62013
C 1.16911 -0.416201 -3.36413
H -0.176887 0.393799 -1.99213
H -0.0488868 -1.1602 -1.84313
H -0.953887 -0.566201 -3.11413
H 1.99011 -0.284201 -2.65713
H 1.12511 0.419799 -4.06513
H 1.26811 -1.3632 -3.89913
C -0.30642 0.366783 3.02712
C -0.27542 0.228783 1.53812
O -0.35042 1.27278 0.822124
O -0.16842 -0.930217 1.03412
H -0.75242 1.32178 3.32112
H -0.89542 -0.440217 3.47312
H 0.71258 0.319783 3.42012
