15
Coordinates from XML
N -0.0734165 -0.449583 -2.62776
C 1.16958 -0.418583 -3.37176
H -0.176416 0.391417 -1.99976
H -0.0484165 -1.16258 -1.85076
H -0.953416 -0.568583 -3.12176
H 1.99058 -0.286583 -2.66476
H 1.12558 0.417417 -4.07276
H 1.26858 -1.36558 -3.90676
C -0.306676 0.368077 3.03127
C -0.275676 0.230077 1.54227
O -0.350676 1.27408 0.826266
O -0.168676 -0.928923 1.03827
H -0.752676 1.32308 3.32527
H -0.895676 -0.438923 3.47727
H 0.712324 0.321077 3.42427
