15
Coordinates from XML
N -0.073416470524 -0.449583321964 -2.627760516031
C 1.169583529476 -0.418583321964 -3.371760516031
H -0.176416470524 0.391416678036 -1.999760516031
H -0.048416470524 -1.162583321964 -1.850760516031
H -0.953416470524 -0.568583321964 -3.121760516031
H 1.990583529476 -0.286583321964 -2.664760516031
H 1.125583529476 0.417416678036 -4.072760516031
H 1.268583529476 -1.365583321964 -3.906760516031
C -0.306675506704 0.368076578686 3.031266462016
C -0.275675506704 0.230076578686 1.542266462016
O -0.350675506704 1.274076578686 0.826266462016
O -0.168675506704 -0.928923421314 1.038266462016
H -0.752675506704 1.323076578686 3.325266462016
H -0.895675506704 -0.438923421314 3.477266462016
H 0.712324493296 0.321076578686 3.424266462016
