15
Coordinates from XML
N 0.45814202567 0.039495547162 -2.7170012666
C -0.419331704652 0.994088496315 -1.90905402453
H 1.235073423804 0.538945478649 -3.156638941368
H -0.080910662623 -0.416967445942 -3.456815474687
H 0.852394592718 -0.690968031084 -2.119007525692
H -0.814591364696 1.748942952325 -2.58092068391
H 0.191213517457 1.453648877294 -1.139212079377
H -1.226998014537 0.423433843393 -1.462617200549
C 0.061746298019 1.174318467222 1.167061116842
C -0.034678606588 -0.377554449232 1.273775217023
O -0.567138653097 -0.984810429594 0.278546786372
O 0.433002831293 -0.878696675268 2.35876791494
H -0.339179740096 1.527689886259 0.216071245547
H -0.48989864146 1.63334666314 1.994243982343
H 1.106764348428 1.48499879082 1.26792493981
