15
Coordinates from XML
N 0.45814202567 0.039495547162 -2.833649701832
C -0.419331704652 0.994088496315 -2.025702459762
H 1.235073423804 0.538945478649 -3.2732873766
H -0.080910662623 -0.416967445942 -3.573463909919
H 0.852394592718 -0.690968031084 -2.235655960924
H -0.814591364696 1.748942952325 -2.697569119142
H 0.191213517457 1.453648877294 -1.255860514609
H -1.226998014537 0.423433843393 -1.579265635781
C 0.061746298019 1.174318467222 1.23041268161
C -0.034678606588 -0.377554449232 1.337126781791
O -0.567138653097 -0.984810429594 0.34189835114
O 0.433002831293 -0.878696675268 2.422119479709
H -0.339179740096 1.527689886259 0.279422810315
H -0.48989864146 1.63334666314 2.057595547111
H 1.106764348428 1.48499879082 1.331276504578
