15
Coordinates from XML
N 0.458142 0.0394955 -2.83365
C -0.419332 0.994088 -2.0257
H 1.23507 0.538945 -3.27329
H -0.0809107 -0.416967 -3.57346
H 0.852395 -0.690968 -2.23566
H -0.814591 1.74894 -2.69757
H 0.191214 1.45365 -1.25586
H -1.227 0.423434 -1.57927
C 0.0617463 1.17432 1.23041
C -0.0346786 -0.377554 1.33713
O -0.567139 -0.98481 0.341898
O 0.433003 -0.878697 2.42212
H -0.33918 1.52769 0.279423
H -0.489899 1.63335 2.0576
H 1.10676 1.485 1.33128
