15
Coordinates from XML
N 0.458142 0.0394955 -2.89845
C -0.419332 0.994088 -2.09051
H 1.23507 0.538945 -3.33809
H -0.0809107 -0.416967 -3.63827
H 0.852395 -0.690968 -2.30046
H -0.814591 1.74894 -2.76237
H 0.191214 1.45365 -1.32067
H -1.227 0.423434 -1.64407
C 0.0617463 1.17432 1.26561
C -0.0346786 -0.377554 1.37232
O -0.567139 -0.98481 0.377094
O 0.433003 -0.878697 2.45731
H -0.33918 1.52769 0.314618
H -0.489899 1.63335 2.09279
H 1.10676 1.485 1.36647
