15
Coordinates from XML
N 0.582786 -0.684383 -2.01355
C 0.132069 0.032257 -3.28527
H 1.23143 -0.104171 -1.476
H 1.05722 -1.56284 -2.23602
H -0.216061 -0.902015 -1.41265
H 1.00827 0.242443 -3.88986
H -0.363899 0.954585 -3.00253
H -0.551748 -0.6174 -3.82157
C 0.841744 -0.770905 1.14473
C -0.284705 0.266964 1.43272
O -0.621053 1.02764 0.457533
O -0.752838 0.244796 2.62747
H 1.17999 -0.705495 0.109692
H 1.68467 -0.593753 1.82101
H 0.472255 -1.78058 1.35157
