15
Coordinates from XML
N 0.582785612328 -0.684383255866 -2.01355407917
C 0.132068988489 0.032257044159 -3.285272521799
H 1.231433120275 -0.104170890758 -1.476000418264
H 1.057218131368 -1.562839678882 -2.236016267096
H -0.216061235657 -0.902015356336 -1.412647578754
H 1.008272925273 0.242442624372 -3.889862415559
H -0.363899441096 0.954584962219 -3.002528183315
H -0.551747507225 -0.617399886406 -3.821573101315
C 0.841743511874 -0.770904840834 1.144730613036
C -0.284704556578 0.266964234194 1.432719748954
O -0.621052728546 1.027644056653 0.457532961253
O -0.752838290952 0.244796034917 2.627474112943
H 1.179991644796 -0.705495361809 0.109692167487
H 1.684666748841 -0.593753122106 1.821005854347
H 0.472255440101 -1.780584883827 1.351571797367
