15
Coordinates from XML
N 0.582786 -0.684383 -2.0654
C 0.132069 0.032257 -3.33712
H 1.23143 -0.104171 -1.52784
H 1.05722 -1.56284 -2.28786
H -0.216061 -0.902015 -1.46449
H 1.00827 0.242443 -3.94171
H -0.363899 0.954585 -3.05437
H -0.551748 -0.6174 -3.87342
C 0.841744 -0.770905 1.17289
C -0.284705 0.266964 1.46088
O -0.621053 1.02764 0.485689
O -0.752838 0.244796 2.65563
H 1.17999 -0.705495 0.137848
H 1.68467 -0.593753 1.84916
H 0.472255 -1.78058 1.37973
