15
Coordinates from XML
N 0.582785612328 -0.684383255866 -2.182046263394
C 0.132068988489 0.032257044159 -3.453764706023
H 1.231433120275 -0.104170890758 -1.644492602487
H 1.057218131368 -1.562839678882 -2.40450845132
H -0.216061235657 -0.902015356336 -1.581139762978
H 1.008272925273 0.242442624372 -4.058354599783
H -0.363899441096 0.954584962219 -3.171020367539
H -0.551747507225 -0.617399886406 -3.990065285539
C 0.841743511874 -0.770904840834 1.236238428812
C -0.284704556578 0.266964234194 1.52422756473
O -0.621052728546 1.027644056653 0.549040777029
O -0.752838290952 0.244796034917 2.71898192872
H 1.179991644796 -0.705495361809 0.201199983263
H 1.684666748841 -0.593753122106 1.912513670123
H 0.472255440101 -1.780584883827 1.443079613143
