15
Coordinates from XML
N 0.582786 -0.684383 -2.18205
C 0.132069 0.032257 -3.45376
H 1.23143 -0.104171 -1.64449
H 1.05722 -1.56284 -2.40451
H -0.216061 -0.902015 -1.58114
H 1.00827 0.242443 -4.05835
H -0.363899 0.954585 -3.17102
H -0.551748 -0.6174 -3.99007
C 0.841744 -0.770905 1.23624
C -0.284705 0.266964 1.52423
O -0.621053 1.02764 0.549041
O -0.752838 0.244796 2.71898
H 1.17999 -0.705495 0.2012
H 1.68467 -0.593753 1.91251
H 0.472255 -1.78058 1.44308
