15
Coordinates from XML
N 0.582786 -0.684383 -2.24685
C 0.132069 0.032257 -3.51857
H 1.23143 -0.104171 -1.7093
H 1.05722 -1.56284 -2.46931
H -0.216061 -0.902015 -1.64594
H 1.00827 0.242443 -4.12316
H -0.363899 0.954585 -3.23583
H -0.551748 -0.6174 -4.05487
C 0.841744 -0.770905 1.27143
C -0.284705 0.266964 1.55942
O -0.621053 1.02764 0.584236
O -0.752838 0.244796 2.75418
H 1.17999 -0.705495 0.236395
H 1.68467 -0.593753 1.94771
H 0.472255 -1.78058 1.47827
