15
Coordinates from XML
N 0.582786 -0.684383 -2.53199
C 0.132069 0.032257 -3.80371
H 1.23143 -0.104171 -1.99444
H 1.05722 -1.56284 -2.75445
H -0.216061 -0.902015 -1.93109
H 1.00827 0.242443 -4.4083
H -0.363899 0.954585 -3.52097
H -0.551748 -0.6174 -4.34001
C 0.841744 -0.770905 1.42629
C -0.284705 0.266964 1.71428
O -0.621053 1.02764 0.739095
O -0.752838 0.244796 2.90904
H 1.17999 -0.705495 0.391255
H 1.68467 -0.593753 2.10257
H 0.472255 -1.78058 1.63313
