15
Coordinates from XML
N 0.582786 -0.684383 -2.58384
C 0.132069 0.032257 -3.85555
H 1.23143 -0.104171 -2.04628
H 1.05722 -1.56284 -2.8063
H -0.216061 -0.902015 -1.98293
H 1.00827 0.242443 -4.46014
H -0.363899 0.954585 -3.57281
H -0.551748 -0.6174 -4.39185
C 0.841744 -0.770905 1.45445
C -0.284705 0.266964 1.74244
O -0.621053 1.02764 0.767252
O -0.752838 0.244796 2.93719
H 1.17999 -0.705495 0.419411
H 1.68467 -0.593753 2.13072
H 0.472255 -1.78058 1.66129
