15
Coordinates from XML
N 0.582786 -0.684383 -2.76529
C 0.132069 0.032257 -4.03701
H 1.23143 -0.104171 -2.22773
H 1.05722 -1.56284 -2.98775
H -0.216061 -0.902015 -2.16438
H 1.00827 0.242443 -4.6416
H -0.363899 0.954585 -3.75426
H -0.551748 -0.6174 -4.57331
C 0.841744 -0.770905 1.553
C -0.284705 0.266964 1.84099
O -0.621053 1.02764 0.865799
O -0.752838 0.244796 3.03574
H 1.17999 -0.705495 0.517958
H 1.68467 -0.593753 2.22927
H 0.472255 -1.78058 1.75984
