15
Coordinates from XML
N 0.582786 -0.684383 -2.81713
C 0.132069 0.032257 -4.08885
H 1.23143 -0.104171 -2.27958
H 1.05722 -1.56284 -3.03959
H -0.216061 -0.902015 -2.21623
H 1.00827 0.242443 -4.69344
H -0.363899 0.954585 -3.80611
H -0.551748 -0.6174 -4.62515
C 0.841744 -0.770905 1.58115
C -0.284705 0.266964 1.86914
O -0.621053 1.02764 0.893955
O -0.752838 0.244796 3.0639
H 1.17999 -0.705495 0.546114
H 1.68467 -0.593753 2.25743
H 0.472255 -1.78058 1.78799
