9
Coordinates from XML
N -0.671982834699 -0.146969086455 -0.727001167534
C 0.769534239076 0.168291159433 -0.731605880109
H -0.874968592375 -0.964255519381 -0.136596722483
H -1.012593339801 -0.357386008703 -1.674413017073
H -1.226684618349 0.640629617509 -0.366566273648
H 1.300378694859 -0.701759875661 -1.122504703458
H 1.068146561512 0.381087763199 0.296649582465
H 0.918738809781 1.039683640564 -1.372064091009
Li 0.000148676071 3.2513531e-05 3.330850040075
