9
Coordinates from XML
N 0.261328517788 0.056563070163 -1.459907114373
C -0.299269112082 -0.064761369432 -0.100351165638
H 0.396769387186 1.041565153131 -1.722898383136
H -0.360128398578 -0.368209722694 -2.160791830678
H 1.174452554369 -0.411351328362 -1.531877312868
H -1.262422567444 0.448851887155 -0.089243777038
H 0.40267216003 0.402131289865 0.593227024043
H -0.418584534587 -1.127704759083 0.118026398111
Li -5.7819804e-05 -1.2511323e-05 3.77401026319
