9
Coordinates from XML
N 0.0211332 0.676731 -0.979921
C -0.0241961 -0.774967 -0.719347
H 0.686526 1.14922 -0.354028
H -0.89989 1.11192 -0.837766
H 0.311211 0.875077 -1.94658
H -0.336753 -0.91867 0.316628
H 0.977431 -1.1757 -0.886429
H -0.744026 -1.21614 -1.41143
Li -4.67446e-06 -0.000149725 3.92157
