9
Coordinates from XML
N 0.639787 0.0137827 -0.351148
C -0.732657 -0.015789 -0.892355
H 1.34012 -0.0169702 -1.10369
H 0.815723 -0.788257 0.268254
H 0.809121 0.869103 0.194445
H -0.848803 -0.942382 -1.45762
H -0.855983 0.855953 -1.53781
H -1.425 0.0190696 -0.0490138
Li -0.000141551 -3.0508e-06 2.75651
