9
Coordinates from XML
N 0.119440463842 -0.122014558274 -0.149012185788
C -0.136774846025 0.139714299967 -1.578429346645
H 0.793690039596 -0.888389063072 -0.023332561382
H -0.743779541691 -0.385297103409 0.344357385097
H 0.503535868199 0.708317725957 0.32102836365
H -0.54095222847 -0.774069602365 -2.018004315631
H 0.812514332918 0.412510878925 -2.043395034895
H -0.855817493119 0.958498031501 -1.644341808554
Li -2.6424993e-05 2.6992423e-05 3.724498221005
