9
Coordinates from XML
N 0.245408870441 -0.285613025397 -0.250486715495
C -0.281023126463 0.327069245383 -1.485343584815
H 1.255737981896 -0.464120723802 -0.321955786831
H -0.214329483401 -1.184123290523 -0.052496919119
H 0.095788894732 0.324604163235 0.56386452664
H -0.092807714761 -0.365218997033 -2.308081986867
H 0.243757964463 1.271865437904 -1.639375955449
H -1.35147225724 0.490603452568 -1.346892143879
Li -5.4293748e-05 6.3190301e-05 3.773742678892
