9
Coordinates from XML
N -0.513704 -0.0258361 -0.41609
C 0.588281 0.0295976 -1.39585
H -0.659817 0.886507 0.0355942
H -0.321087 -0.711286 0.326162
H -1.39981 -0.295084 -0.863572
H 1.49544 0.318945 -0.862068
H 0.325012 0.770645 -2.15302
H 0.692493 -0.963204 -1.83774
Li 0.000113658 5.71896e-06 3.98707
