9
Coordinates from XML
N -0.513703609603 -0.025836139325 -0.416089597196
C 0.588280600379 0.029597586159 -1.395854672624
H -0.659816927516 0.886507203398 0.03559421181
H -0.321087424508 -0.711285874368 0.326162163308
H -1.399809985084 -0.295083788687 -0.863571769628
H 1.495439260697 0.318944707598 -0.862068256232
H 0.325012388128 0.770644629938 -2.153020531154
H 0.692493016999 -0.963203709056 -1.837735810988
Li 0.000113657551 5.718958e-06 3.987074688557
