9
Coordinates from XML
N 0.111992861405 0.162394594264 -0.034253513994
C -0.128244955418 -0.185980947963 -1.447866605666
H 0.846836209347 -0.427709404118 0.377474873512
H -0.73774575218 0.038526910715 0.531856983661
H 0.409832236178 1.141871556118 0.064921523349
H -0.439623213192 -1.231537373342 -1.485838594495
H 0.805629055733 -0.034420166264 -1.992540517974
H -0.913833380725 0.471594534844 -1.824985804903
Li -2.477693e-05 -3.5932687e-05 3.166623410933
