9
Coordinates from XML
N 0.226943 0.0979347 -1.46447
C -0.259893 -0.112163 -0.0874285
H -0.324043 -0.443492 -2.14344
H 1.20926 -0.190645 -1.56277
H 0.166622 1.08808 -1.73629
H -0.170412 -1.17612 0.139695
H -1.30182 0.211316 -0.0485614
H 0.362023 0.485773 0.581501
Li -5.02122e-05 -2.16709e-05 3.7576
