9
Coordinates from XML
N 0.209573637598 -0.473034084838 -0.462624252948
C -0.23998900297 0.541696274536 -1.435042593977
H 1.088798404885 -0.914975554746 -0.761604663281
H -0.489121685896 -1.219330391123 -0.349723065389
H 0.371460623473 -0.0578916647 0.464397038505
H -0.393548467643 0.041275775535 -2.392949345696
H 0.540296783716 1.301529149661 -1.509669016741
H -1.171944463393 0.971280638543 -1.062631699951
Li -4.6366035e-05 0.00010465671 4.183973011285
