9
Coordinates from XML
N 0.294645183226 -0.148421152323 0.124241050689
C -0.329395306448 0.165886147767 -1.234350492161
H -0.28078984014 -0.813145659659 0.647088810343
H 0.388502482777 0.698781927856 0.68966043095
H 1.225815090264 -0.557575373024 0.014131705749
H -1.311773084 0.596294084348 -1.069659366409
H -0.40941750037 -0.75764848552 -1.797642656248
H 0.31194297274 0.87170650474 -1.751825394125
Li -0.013808750244 0.006984749273 2.332705511099
