9
Coordinates from XML
N 0.294645183226 -0.148421152323 -0.040984941113
C -0.329395306448 0.165886147767 -1.399576483963
H -0.28078984014 -0.813145659659 0.481862818541
H 0.388502482777 0.698781927856 0.524434439147
H 1.225815090264 -0.557575373024 -0.151094286053
H -1.311773084 0.596294084348 -1.234885358211
H -0.40941750037 -0.75764848552 -1.96286864805
H 0.31194297274 0.87170650474 -1.917051385927
Li -0.013808750244 0.006984749273 3.087479519296
