9
Coordinates from XML
N 0.294645183226 -0.148421152323 -0.073311765596
C -0.329395306448 0.165886147767 -1.431903308446
H -0.28078984014 -0.813145659659 0.449535994057
H 0.388502482777 0.698781927856 0.492107614664
H 1.225815090264 -0.557575373024 -0.183421110536
H -1.311773084 0.596294084348 -1.267212182695
H -0.40941750037 -0.75764848552 -1.995195472533
H 0.31194297274 0.87170650474 -1.94937821041
Li -0.013808750244 0.006984749273 3.235152694813
