9
Coordinates from XML
N 0.294645183226 -0.148421152323 -0.105638590079
C -0.329395306448 0.165886147767 -1.464230132929
H -0.28078984014 -0.813145659659 0.417209169574
H 0.388502482777 0.698781927856 0.459780790181
H 1.225815090264 -0.557575373024 -0.215747935019
H -1.311773084 0.596294084348 -1.299539007178
H -0.40941750037 -0.75764848552 -2.027522297016
H 0.31194297274 0.87170650474 -1.981705034893
Li -0.013808750244 0.006984749273 3.38282587033
