9
Coordinates from XML
N 0.294645183226 -0.148421152323 -0.137965414562
C -0.329395306448 0.165886147767 -1.496556957412
H -0.28078984014 -0.813145659659 0.384882345091
H 0.388502482777 0.698781927856 0.427453965698
H 1.225815090264 -0.557575373024 -0.248074759502
H -1.311773084 0.596294084348 -1.331865831661
H -0.40941750037 -0.75764848552 -2.059849121499
H 0.31194297274 0.87170650474 -2.014031859376
Li -0.013808750244 0.006984749273 3.530499045847
