9
Coordinates from XML
N 0.294645183226 -0.148421152323 -0.170292239045
C -0.329395306448 0.165886147767 -1.528883781896
H -0.28078984014 -0.813145659659 0.352555520608
H 0.388502482777 0.698781927856 0.395127141215
H 1.225815090264 -0.557575373024 -0.280401583985
H -1.311773084 0.596294084348 -1.364192656144
H -0.40941750037 -0.75764848552 -2.092175945982
H 0.31194297274 0.87170650474 -2.046358683859
Li -0.013808750244 0.006984749273 3.678172221364
