9
Coordinates from XML
N 0.294645183226 -0.148421152323 -0.263680843107
C -0.329395306448 0.165886147767 -1.622272385958
H -0.28078984014 -0.813145659659 0.259166916546
H 0.388502482777 0.698781927856 0.301738537153
H 1.225815090264 -0.557575373024 -0.373790188048
H -1.311773084 0.596294084348 -1.457581260206
H -0.40941750037 -0.75764848552 -2.185564550045
H 0.31194297274 0.87170650474 -2.139747287921
Li -0.013808750244 0.006984749273 4.104783617302
