9
Coordinates from XML
N -0.593824003722 -0.110378438385 -0.82949052652
C 0.826175996278 0.275621561615 -0.54449052652
H -0.625824003722 -0.949378438385 -1.43049052652
H -1.086824003722 0.657621561615 -1.31249052652
H -1.093824003722 -0.318378438385 0.05050947348
H 1.356175996278 0.496621561615 -1.47449052652
H 1.320175996278 -0.551378438385 -0.02949052652
H 0.829175996278 1.160621561615 0.09650947348
Li -0.328288978142 -0.322324495218 3.175786485125
