9
Coordinates from XML
N -0.596265610536 -0.110365852783 -0.83945832341
C 0.823734389464 0.275634147217 -0.55445832341
H -0.628265610536 -0.949365852783 -1.44045832341
H -1.089265610536 0.657634147217 -1.32245832341
H -1.096265610536 -0.318365852783 0.04054167659
H 1.353734389464 0.496634147217 -1.48445832341
H 1.317734389464 -0.551365852783 -0.03945832341
H 0.826734389464 1.160634147217 0.08654167659
Li -0.317135397876 -0.3223819879 3.221320689096
