9
Coordinates from XML
N -0.610915251421 -0.110290339171 -0.899265104755
C 0.809084748579 0.275709660829 -0.614265104755
H -0.642915251421 -0.949290339171 -1.500265104755
H -1.103915251421 0.657709660829 -1.382265104755
H -1.110915251421 -0.318290339171 -0.019265104755
H 1.339084748579 0.496709660829 -1.544265104755
H 1.303084748579 -0.551290339171 -0.099265104755
H 0.812084748579 1.160709660829 0.026734895245
Li -0.250213916282 -0.322726943991 3.494525912927
