9
Coordinates from XML
N -0.615798465049 -0.110265167966 -0.919200698537
C 0.804201534951 0.275734832034 -0.634200698537
H -0.647798465049 -0.949265167966 -1.520200698537
H -1.108798465049 0.657734832034 -1.402200698537
H -1.115798465049 -0.318265167966 -0.039200698537
H 1.334201534951 0.496734832034 -1.564200698537
H 1.298201534951 -0.551265167966 -0.119200698537
H 0.807201534951 1.160734832034 0.006799301463
Li -0.22790675575 -0.322841929354 3.58559432087
