9
Coordinates from XML
N -0.618240071863 -0.110252582364 -0.929168495427
C 0.801759928137 0.275747417636 -0.644168495427
H -0.650240071863 -0.949252582364 -1.530168495427
H -1.111240071863 0.657747417636 -1.412168495427
H -1.118240071863 -0.318252582364 -0.049168495427
H 1.331759928137 0.496747417636 -1.574168495427
H 1.295759928137 -0.551252582364 -0.129168495427
H 0.804759928137 1.160747417636 -0.003168495427
Li -0.216753175484 -0.322899422036 3.631128524842
