9
Coordinates from XML
N -0.620681678677 -0.110239996762 -0.939136292318
C 0.799318321323 0.275760003238 -0.654136292318
H -0.652681678677 -0.949239996762 -1.540136292318
H -1.113681678677 0.657760003238 -1.422136292318
H -1.120681678677 -0.318239996762 -0.059136292318
H 1.329318321323 0.496760003238 -1.584136292318
H 1.293318321323 -0.551239996762 -0.139136292318
H 0.802318321323 1.160760003238 -0.013136292318
Li -0.205599595218 -0.322956914718 3.676662728814
