9
Coordinates from XML
N 0.602893028029 0.275847776169 -0.952264931497
C -0.674009059349 -0.308350471211 -0.35041772584
H 0.506863066646 0.403757761959 -1.96259715339
H 1.401681776487 -0.34160755531 -0.788110198752
H 0.819485012526 1.186485570778 -0.539426755919
H -0.864130789983 -1.270036967263 -0.815662895028
H -1.491532890366 0.376751336738 -0.547669166866
H -0.527223053017 -0.426447600921 0.71812538285
Li -0.028246613628 -0.012950018633 3.065247069445
