9
Coordinates from XML
N 0.602893028029 0.275847776169 -0.995367364141
C -0.674009059349 -0.308350471211 -0.393520158484
H 0.506863066646 0.403757761959 -2.005699586034
H 1.401681776487 -0.34160755531 -0.831212631396
H 0.819485012526 1.186485570778 -0.582529188563
H -0.864130789983 -1.270036967263 -0.858765327672
H -1.491532890366 0.376751336738 -0.59077159951
H -0.527223053017 -0.426447600921 0.675022950206
Li -0.028246613628 -0.012950018633 3.262144636801
