9
Coordinates from XML
N 0.602893028029 0.275847776169 -1.103123445751
C -0.674009059349 -0.308350471211 -0.501276240094
H 0.506863066646 0.403757761959 -2.113455667644
H 1.401681776487 -0.34160755531 -0.938968713006
H 0.819485012526 1.186485570778 -0.690285270173
H -0.864130789983 -1.270036967263 -0.966521409283
H -1.491532890366 0.376751336738 -0.698527681121
H -0.527223053017 -0.426447600921 0.567266868596
Li -0.028246613628 -0.012950018633 3.754388555191
