9
Coordinates from XML
N 0.602893028029 0.275847776169 -1.135450270234
C -0.674009059349 -0.308350471211 -0.533603064577
H 0.506863066646 0.403757761959 -2.145782492127
H 1.401681776487 -0.34160755531 -0.971295537489
H 0.819485012526 1.186485570778 -0.722612094656
H -0.864130789983 -1.270036967263 -0.998848233766
H -1.491532890366 0.376751336738 -0.730854505604
H -0.527223053017 -0.426447600921 0.534940044113
Li -0.028246613628 -0.012950018633 3.902061730707
