9
Coordinates from XML
N 0.602893028029 0.275847776169 -1.149817747782
C -0.674009059349 -0.308350471211 -0.547970542125
H 0.506863066646 0.403757761959 -2.160149969675
H 1.401681776487 -0.34160755531 -0.985663015037
H 0.819485012526 1.186485570778 -0.736979572204
H -0.864130789983 -1.270036967263 -1.013215711314
H -1.491532890366 0.376751336738 -0.745221983152
H -0.527223053017 -0.426447600921 0.520572566565
Li -0.028246613628 -0.012950018633 3.967694253159
