9
Coordinates from XML
N 0.602893028029 0.275847776169 -1.182144572265
C -0.674009059349 -0.308350471211 -0.580297366609
H 0.506863066646 0.403757761959 -2.192476794158
H 1.401681776487 -0.34160755531 -1.01798983952
H 0.819485012526 1.186485570778 -0.769306396687
H -0.864130789983 -1.270036967263 -1.045542535797
H -1.491532890366 0.376751336738 -0.777548807635
H -0.527223053017 -0.426447600921 0.488245742082
Li -0.028246613628 -0.012950018633 4.115367428676
