9
Coordinates from XML
N 0.602893028029 0.275847776169 -1.286308784488
C -0.674009059349 -0.308350471211 -0.684461578832
H 0.506863066646 0.403757761959 -2.296641006382
H 1.401681776487 -0.34160755531 -1.122154051743
H 0.819485012526 1.186485570778 -0.87347060891
H -0.864130789983 -1.270036967263 -1.14970674802
H -1.491532890366 0.376751336738 -0.881713019858
H -0.527223053017 -0.426447600921 0.384081529859
Li -0.028246613628 -0.012950018633 4.591203216453
