9
Coordinates from XML
N 0.602893028029 0.275847776169 -1.376105519164
C -0.674009059349 -0.308350471211 -0.774258313507
H 0.506863066646 0.403757761959 -2.386437741057
H 1.401681776487 -0.34160755531 -1.211950786419
H 0.819485012526 1.186485570778 -0.963267343585
H -0.864130789983 -1.270036967263 -1.239503482695
H -1.491532890366 0.376751336738 -0.971509754533
H -0.527223053017 -0.426447600921 0.294284795184
Li -0.028246613628 -0.012950018633 5.001406481778
