9
Coordinates from XML
N 0.602893028029 0.275847776169 -1.394064866099
C -0.674009059349 -0.308350471211 -0.792217660442
H 0.506863066646 0.403757761959 -2.404397087992
H 1.401681776487 -0.34160755531 -1.229910133354
H 0.819485012526 1.186485570778 -0.98122669052
H -0.864130789983 -1.270036967263 -1.25746282963
H -1.491532890366 0.376751336738 -0.989469101468
H -0.527223053017 -0.426447600921 0.276325448249
Li -0.028246613628 -0.012950018633 5.083447134843
