9
Coordinates from XML
N -0.037760504735 -0.090630678914 -1.393488333777
C 0.042193571013 0.101350706901 0.120029781482
H -0.996475656352 0.031825312112 -1.728486400734
H 0.271416108821 -1.028180795479 -1.661202599132
H 0.554267342076 0.586646328372 -1.88073316334
H -0.598487299894 -0.635144910461 0.593888920744
H -0.293666115001 1.105105365894 0.357290583939
H 1.072788701018 -0.037173220892 0.429807505457
Li 0.001784518368 0.004224763442 3.13463828683
