9
Coordinates from XML
N -0.037760504735 -0.090630678914 -1.443774505195
C 0.042193571013 0.101350706901 0.069743610064
H -0.996475656352 0.031825312112 -1.778772572152
H 0.271416108821 -1.028180795479 -1.71148877055
H 0.554267342076 0.586646328372 -1.931019334758
H -0.598487299894 -0.635144910461 0.543602749326
H -0.293666115001 1.105105365894 0.307004412521
H 1.072788701018 -0.037173220892 0.379521334039
Li 0.001784518368 0.004224763442 3.364352115412
