9
Coordinates from XML
N -0.037760504735 -0.090630678914 -1.544346848031
C 0.042193571013 0.101350706901 -0.030828732772
H -0.996475656352 0.031825312112 -1.879344914988
H 0.271416108821 -1.028180795479 -1.812061113387
H 0.554267342076 0.586646328372 -2.031591677594
H -0.598487299894 -0.635144910461 0.44303040649
H -0.293666115001 1.105105365894 0.206432069685
H 1.072788701018 -0.037173220892 0.278948991202
Li 0.001784518368 0.004224763442 3.823779772576
