9
Coordinates from XML
N -0.0377605 -0.0906307 -1.59463
C 0.0421936 0.101351 -0.0811149
H -0.996476 0.0318253 -1.92963
H 0.271416 -1.02818 -1.86235
H 0.554267 0.586646 -2.08188
H -0.598487 -0.635145 0.392744
H -0.293666 1.10511 0.156146
H 1.07279 -0.0371732 0.228663
Li 0.00178452 0.00422476 4.05349
