9
Coordinates from XML
N -0.037760504735 -0.090630678914 -1.792185835735
C 0.042193571013 0.101350706901 -0.278667720475
H -0.996475656352 0.031825312112 -2.127183902692
H 0.271416108821 -1.028180795479 -2.05990010109
H 0.554267342076 0.586646328372 -2.279430665298
H -0.598487299894 -0.635144910461 0.195191418787
H -0.293666115001 1.105105365894 -0.041406918019
H 1.072788701018 -0.037173220892 0.031110003499
Li 0.001784518368 0.004224763442 4.955940784872
