8
Coordinates from XML
C -0.022030568814 0.069191816094 -1.882425100124
C -0.064030568814 0.078191816094 -0.371425100124
O 0.930969431186 -0.579808183906 0.164574899876
O -1.032030568814 0.438191816094 0.267574899876
H 0.935969431186 0.456191816094 -2.237425100124
H -0.143030568814 -0.948808183906 -2.259425100124
H -0.820030568814 0.693191816094 -2.291425100124
Li 0.38148522066 0.041960237146 3.84483805777
