8
Coordinates from XML
C -0.017575650451 0.067943029663 -1.871150790033
C -0.059575650451 0.076943029663 -0.360150790033
O 0.935424349549 -0.581056970337 0.175849209967
O -1.027575650451 0.436943029663 0.278849209967
H 0.940424349549 0.454943029663 -2.226150790033
H -0.138575650451 -0.950056970337 -2.248150790033
H -0.815575650451 0.691943029663 -2.280150790033
Li 0.344013823233 0.052464082295 3.750007104704
