8
Coordinates from XML
C 0.012972361178 0.059379922713 -1.793841235119
C -0.029027638822 0.068379922713 -0.282841235119
O 0.965972361178 -0.589620077287 0.253158764881
O -0.997027638822 0.428379922713 0.356158764881
H 0.970972361178 0.446379922713 -2.148841235119
H -0.108027638822 -0.958620077287 -2.170841235119
H -0.785027638822 0.683379922713 -2.202841235119
Li 0.08706709802 0.124490449029 3.099737712249
