8
Coordinates from XML
C 0.358356208864 -1.4050484392 -0.25520775996
C -0.033827930402 0.108575508673 -0.38702918229
O -1.224983952855 0.360390492255 -0.816629609755
O 0.892661498 0.94504523082 -0.048072195554
H -0.476368486786 -2.055622159938 -0.543435740979
H 1.230040526793 -1.610435593602 -0.894322797873
H 0.656203873244 -1.614386872614 0.782871249393
Li 3.1600942e-05 -0.000127350287 3.163864849626
