8
Coordinates from XML
C 1.044004196588 -1.006520599395 -0.361205932511
C -0.08246102767 0.077579202854 -0.495543043364
O -0.523922385026 0.305949963025 -1.687087691677
O -0.445764043732 0.629369728301 0.616434578
H 1.291010458512 -1.442104540034 -1.337085735516
H 1.9402363904 -0.545034971918 0.079571035367
H 0.70879367275 -1.795681424883 0.327998635641
Li 9.4376091e-05 -9.1250481e-05 4.039733256223
