8
Coordinates from XML
C -1.352368370338 -0.391632921209 -0.112948792056
C 0.10384826894 0.035777049356 -0.511692517527
O 0.213616193406 1.085896595752 -1.254672950714
O 1.042921895624 -0.722645930775 -0.047051362717
H -2.094568383517 0.301842958432 -0.526853608988
H -1.545222311762 -1.409713215478 -0.482820846562
H -1.435611693855 -0.419824870974 0.9836001597
Li -0.00012267056 -3.4708926e-05 4.039756187513
