8
Coordinates from XML
C 1.074189348448 -0.476373731515 0.371480625151
C -0.082246702774 0.043086575328 -0.553213589766
O -0.205389088805 1.323950736184 -0.658298970568
O -0.792836322998 -0.881922205097 -1.112120776724
H 1.643274790335 0.358407195197 0.798527949127
H 0.645203877819 -1.088005617662 1.179170767992
H 1.742513355989 -1.126344903797 -0.212492265218
Li 9.7465478e-05 -4.2274394e-05 4.093425735088
