8
Coordinates from XML
C 1.387084565497 0.439532427814 -0.431911379076
C -0.108957808354 -0.033855124837 -0.429866216518
O -0.657116622376 -0.208138400411 0.725974273138
O -0.631406222612 -0.200431447529 -1.601299560343
H 1.759673985386 0.574824593322 0.590810482832
H 2.002158198337 -0.305653452537 -0.958093757073
H 1.468650624591 1.384521310925 -0.989124829505
Li 0.000125470344 3.9844587e-05 3.664352027978
