8
Coordinates from XML
C 0.880695712906 -1.037949068059 0.101772939399
C -0.069592747107 0.078311351367 -0.45783161816
O -0.422288193968 -0.031434666505 -1.694917595927
O -0.395670716897 0.996076093298 0.393248361603
H 1.102931839265 -1.788704723394 -0.666383231447
H 1.814971587244 -0.57550560124 0.4535684704
H 0.405479794012 -1.518450465235 0.969777592773
Li 7.9610947e-05 -9.4344888e-05 3.467772862522
