8
Coordinates from XML
C -0.569285183992 -1.230752031107 0.023954977404
C 0.049259628735 0.093317325985 -0.547434026962
O 1.208339235707 -0.006298407827 -1.107283250717
O -0.679808098002 1.149991412501 -0.389775469996
H 0.092891399336 -2.086147274047 -0.157450655178
H -0.74091157354 -1.113679279704 1.104382586407
H -1.547943430916 -1.407392857669 -0.446332056926
Li -5.0836234e-05 -0.000111808309 4.236394436963
