8
Coordinates from XML
C -0.380979919518 1.403865083794 -0.528005156515
C 0.030525342843 -0.110038711128 -0.496359290704
O 0.187177955409 -0.689105346207 -1.639583579361
O 0.166501267792 -0.615139818669 0.686577527077
H -0.463014437655 1.769132282749 -1.558993548247
H -1.343452309259 1.528594538232 -0.009763005405
H 0.366362791139 1.995337215419 0.021343030772
Li -3.4384541e-05 0.000127016771 4.146968591356
