8
Coordinates from XML
C 1.350851091831 0.11145327648 -1.060416349981
C -0.108178850916 -0.007426527316 -0.495312854621
O -1.065929939207 0.314311513005 -1.299064973966
O -0.188794263667 -0.417783820534 0.728641451305
H 1.343639051696 0.448722639945 -2.104104146034
H 1.92199987098 0.820407035282 -0.442630703531
H 1.850610663702 -0.865649325389 -0.985218502388
Li 0.000121892873 1.0281904e-05 4.468671841636
