8
Coordinates from XML
C -0.490575984849 0.552919795507 0.692292923577
C 0.042295824324 -0.046962707491 -0.656199330623
O 1.042837193523 -0.858420512707 -0.570916378416
O -0.587316591101 0.345240163117 -1.715784726189
H 0.077292606262 0.166996289575 1.547673051639
H -0.412953598995 1.649817663236 0.656581608962
H -1.555881352708 0.303041543122 0.80555886169
Li -4.3827179e-05 4.9513433e-05 4.719082694622
