8
Coordinates from XML
C -1.355764159073 -0.149134693472 0.111550221288
C 0.104556613168 0.009307478512 -0.44035743616
O 0.33788978435 -0.49265314194 -1.606724080832
O 0.921824234182 0.631244666814 0.345914695684
H -1.996243235514 -0.670214324618 -0.610495084306
H -1.326614018148 -0.709726556181 1.05779146841
H -1.77094882552 0.845387882943 0.332209185046
Li -0.0001229111 -1.3844854e-05 3.324773146265
