8
Coordinates from XML
C 1.223333161915 0.699030525752 -0.044678988328
C -0.093002095686 -0.057472442991 -0.441172985672
O -0.057425828659 -0.742254800102 -1.535077659616
O -1.079376992256 0.093257796287 0.381810036176
H 2.019825514049 0.515142626717 -0.776028443969
H 1.016167963417 1.777704917406 0.018800160422
H 1.546460477754 0.367846023043 0.953343758639
Li 0.000111097432 6.2869291e-05 3.432009546605
