8
Coordinates from XML
C 0.039418895118 0.051953753878 -1.726955383866
C -0.002581104882 0.060953753878 -0.215955383866
O 0.992418895118 -0.597046246122 0.320044616134
O -0.970581104882 0.420953753878 0.423044616134
H 0.997418895118 0.438953753878 -2.081955383866
H -0.081581104882 -0.966046246122 -2.103955383866
H -0.758581104882 0.675953753878 -2.135955383866
Li -0.135381104882 0.186953753878 2.537144616134
