8
Coordinates from XML
C -0.029655701958 0.071329265543 -1.901722449382
C -0.071655701958 0.080329265543 -0.390722449382
O 0.923344298042 -0.577670734457 0.145277550618
O -1.039655701958 0.440329265543 0.248277550618
H 0.928344298042 0.458329265543 -2.256722449382
H -0.150655701958 -0.946670734457 -2.278722449382
H -0.827655701958 0.695329265543 -2.310722449382
Li 0.44562206251 0.023981632093 4.007152736619
