8
Coordinates from XML
C -0.032108908226 0.072016939356 -1.907930915158
C -0.074108908226 0.081016939356 -0.396930915158
O 0.920891091774 -0.576983060644 0.139069084842
O -1.042108908226 0.441016939356 0.242069084842
H 0.925891091774 0.459016939356 -2.262930915158
H -0.153108908226 -0.945983060644 -2.284930915158
H -0.830108908226 0.696016939356 -2.316930915158
Li 0.466256574655 0.018197441079 4.059373646089
