8
Coordinates from XML
C -0.03241555901 0.072102898583 -1.90870697338
C -0.07441555901 0.081102898583 -0.39770697338
O 0.92058444099 -0.576897101417 0.13829302662
O -1.04241555901 0.441102898583 0.24129302662
H 0.92558444099 0.459102898583 -2.26370697338
H -0.15341555901 -0.945897101417 -2.28570697338
H -0.83041555901 0.696102898583 -2.31770697338
Li 0.468835888673 0.017474417202 4.065901259773
