8
Coordinates from XML
C -0.032722209794 0.072188857809 -1.909483031602
C -0.074722209794 0.081188857809 -0.398483031602
O 0.920277790206 -0.576811142191 0.137516968398
O -1.042722209794 0.441188857809 0.240516968398
H 0.925277790206 0.459188857809 -2.264483031602
H -0.153722209794 -0.945811142191 -2.286483031602
H -0.830722209794 0.696188857809 -2.318483031602
Li 0.471415202691 0.016751393326 4.072428873457
