8
Coordinates from XML
C -0.033028860577 0.072274817036 -1.910259089824
C -0.075028860577 0.081274817036 -0.399259089824
O 0.919971139423 -0.576725182964 0.136740910176
O -1.043028860577 0.441274817036 0.239740910176
H 0.924971139423 0.459274817036 -2.265259089824
H -0.154028860577 -0.945725182964 -2.287259089824
H -0.831028860577 0.696274817036 -2.319259089824
Li 0.47399451671 0.016028369449 4.078956487141
