8
Coordinates from XML
C -0.033335511361 0.072360776263 -1.911035148046
C -0.075335511361 0.081360776263 -0.400035148046
O 0.919664488639 -0.576639223737 0.135964851954
O -1.043335511361 0.441360776263 0.238964851954
H 0.924664488639 0.459360776263 -2.266035148046
H -0.154335511361 -0.945639223737 -2.288035148046
H -0.831335511361 0.696360776263 -2.320035148046
Li 0.476573830728 0.015305345572 4.085484100824
