8
Coordinates from XML
C -0.034255463711 0.072618653943 -1.913363322712
C -0.076255463711 0.081618653943 -0.402363322712
O 0.918744536289 -0.576381346057 0.133636677288
O -1.044255463711 0.441618653943 0.236636677288
H 0.923744536289 0.459618653943 -2.268363322712
H -0.155255463711 -0.945381346057 -2.290363322712
H -0.832255463711 0.696618653943 -2.322363322712
Li 0.484311772782 0.013136273942 4.105066941876
