8
Coordinates from XML
C -0.034562114495 0.07270461317 -1.914139380934
C -0.076562114495 0.08170461317 -0.403139380934
O 0.918437885505 -0.57629538683 0.132860619066
O -1.044562114495 0.44170461317 0.235860619066
H 0.923437885505 0.45970461317 -2.269139380934
H -0.155562114495 -0.94529538683 -2.291139380934
H -0.832562114495 0.69670461317 -2.323139380934
Li 0.4868910868 0.012413250065 4.11159455556
