8
Coordinates from XML
C -0.035175416062 0.072876531623 -1.915691497378
C -0.077175416062 0.081876531623 -0.404691497378
O 0.917824583938 -0.576123468377 0.131308502622
O -1.045175416062 0.441876531623 0.234308502622
H 0.922824583938 0.459876531623 -2.270691497378
H -0.156175416062 -0.945123468377 -2.292691497378
H -0.833175416062 0.696876531623 -2.324691497378
Li 0.492049714836 0.010967202311 4.124649782927
