8
Coordinates from XML
C -0.029785176733 0.071365559438 -1.902050118409
C -0.071785176733 0.080365559438 -0.391050118409
O 0.923214823267 -0.577634440562 0.144949881591
O -1.039785176733 0.440365559438 0.247949881591
H 0.928214823267 0.458365559438 -2.257050118409
H -0.150785176733 -0.946634440562 -2.279050118409
H -0.827785176733 0.695365559438 -2.311050118409
Li 0.446711106207 0.023676355345 4.009908840174
