8
Coordinates from XML
C -1.27208227259 0.459676884032 0.121988210645
C 0.102553981054 -0.031299080521 -0.453824705542
O 1.115876030307 0.747348199068 -0.270230529304
O 0.06559194334 -1.174729125245 -1.057279456503
H -1.164344840933 1.424810975174 0.63188593041
H -1.997601600571 0.55041481722 -0.700127229675
H -1.662636254675 -0.293295777407 0.822447773176
Li -0.000114688445 4.227628e-05 3.485650894485
