8
Coordinates from XML
C 1.347153722762 0.536674365416 -0.347676920473
C -0.105370153252 -0.041347554335 -0.482983209868
O -0.633989825053 -0.002966221642 -1.660229190514
O -0.617613761567 -0.495491564825 0.614430021027
H 1.723691113962 0.888631673349 -1.315887899085
H 1.341045548751 1.366411242522 0.374808283519
H 2.01256757199 -0.242266420761 0.05309670818
Li 0.00012191662 4.8669727e-05 3.932484018974
