8
Coordinates from XML
C 1.071429789591 -0.192831561169 0.46815520547
C -0.088044214303 0.013003374924 -0.568905427004
O -1.253651753469 -0.422596037762 -0.224765630742
O 0.258703895894 0.601753675845 -1.667128959399
H 0.704402317253 -0.682158801558 1.378614726288
H 1.863670231707 -0.803101145224 0.009448783389
H 1.512797587809 0.783205259688 0.718535778931
Li 9.6358599e-05 -1.7759682e-05 4.182810323026
