8
Coordinates from XML
C -0.692765247707 -0.300435914521 -1.664566304149
C 0.050773114697 0.028471406685 -0.322473378998
O -0.263299526702 1.140543941831 0.253263570972
O 0.907344064748 -0.861794627644 0.060500107704
H -1.412517785933 0.486763303867 -1.920223353673
H 0.047037863706 -0.40679240519 -2.471947947636
H -1.211444088768 -1.265505724046 -1.565792000207
Li -6.3180796e-05 -2.6469921e-05 3.539114216145
