8
Coordinates from XML
C -0.539943842417 1.282086695746 -0.930174553286
C 0.042425340079 -0.098554182905 -0.464428225841
O 0.38525221567 -0.190654129974 0.7768643731
O 0.116529922745 -1.000522025846 -1.388505396316
H -0.588282641048 1.99191523195 -0.095372982599
H 0.093390181863 1.690594223969 -1.731732460164
H -1.544546710826 1.129392170528 -1.351602244939
Li -4.8829263e-05 0.000116283204 4.236309280645
