8
Coordinates from XML
C -0.031338874037 0.071801086187 -1.905982146734
C -0.073338874037 0.080801086187 -0.394982146734
O 0.921661125963 -0.577198913813 0.141017853266
O -1.041338874037 0.440801086187 0.244017853266
H 0.926661125963 0.458801086187 -2.260982146734
H -0.152338874037 -0.946198913813 -2.282982146734
H -0.829338874037 0.695801086187 -2.314982146734
Li 0.459779630565 0.02001303437 4.042982082839
