8
Coordinates from XML
C -0.03130079322 0.071790411512 -1.905885773491
C -0.07330079322 0.080790411512 -0.394885773491
O 0.92169920678 -0.577209588488 0.141114226509
O -1.04130079322 0.440790411512 0.244114226509
H 0.92669920678 0.458790411512 -2.260885773491
H -0.15230079322 -0.946209588488 -2.282885773491
H -0.82930079322 0.695790411512 -2.314885773491
Li 0.459459323596 0.020102821648 4.042171464146
