8
Coordinates from XML
C -0.03226042979 0.072059413327 -1.908314379221
C -0.07426042979 0.081059413327 -0.397314379221
O 0.92073957021 -0.576940586673 0.138685620779
O -1.04226042979 0.441059413327 0.241685620779
H 0.92573957021 0.459059413327 -2.263314379221
H -0.15326042979 -0.945940586673 -2.285314379221
H -0.83026042979 0.696059413327 -2.317314379221
Li 0.467531059229 0.017840182222 4.062599055203
