8
Coordinates from XML
C -0.033699884645 0.07246291605 -1.911957287816
C -0.075699884645 0.08146291605 -0.400957287816
O 0.919300115355 -0.57653708395 0.135042712184
O -1.043699884645 0.44146291605 0.238042712184
H 0.924300115355 0.45946291605 -2.266957287816
H -0.154699884645 -0.94553708395 -2.288957287816
H -0.831699884645 0.69646291605 -2.320957287816
Li 0.479638662679 0.014446223083 4.09324044179
