8
Coordinates from XML
C -0.037538430924 0.073538923311 -1.921671710736
C -0.079538430924 0.082538923311 -0.410671710736
O 0.915461569076 -0.575461076689 0.125328289264
O -1.047538430924 0.442538923311 0.228328289264
H 0.920461569076 0.460538923311 -2.276671710736
H -0.158538430924 -0.944461076689 -2.298671710736
H -0.835538430924 0.697538923311 -2.330671710736
Li 0.511925605211 0.005395665378 4.17495080602
