8
Coordinates from XML
C -0.038498067493 0.073807925126 -1.924100316466
C -0.080498067493 0.082807925126 -0.413100316466
O 0.914501932507 -0.575192074874 0.122899683534
O -1.048498067493 0.442807925126 0.225899683534
H 0.919501932507 0.460807925126 -2.279100316466
H -0.159498067493 -0.944192074874 -2.301100316466
H -0.836498067493 0.697807925126 -2.333100316466
Li 0.519997340844 0.003133025952 4.195378397078
