8
Coordinates from XML
C -0.039457704063 0.074076926941 -1.926528922196
C -0.081457704063 0.083076926941 -0.415528922196
O 0.913542295937 -0.574923073059 0.120471077804
O -1.049457704063 0.443076926941 0.223471077804
H 0.918542295937 0.461076926941 -2.281528922196
H -0.160457704063 -0.943923073059 -2.303528922196
H -0.837457704063 0.698076926941 -2.335528922196
Li 0.528069076478 0.000870386526 4.215805988135
