8
Coordinates from XML
C -0.040417340633 0.074345928756 -1.928957527926
C -0.082417340633 0.083345928756 -0.417957527926
O 0.912582659367 -0.574654071244 0.118042472074
O -1.050417340633 0.443345928756 0.221042472074
H 0.917582659367 0.461345928756 -2.283957527926
H -0.161417340633 -0.943654071244 -2.305957527926
H -0.838417340633 0.698345928756 -2.337957527926
Li 0.536140812111 -0.0013922529 4.236233579193
