8
Coordinates from XML
C -0.040897158918 0.074480429664 -1.930171830792
C -0.082897158918 0.083480429664 -0.419171830792
O 0.912102841082 -0.574519570336 0.116828169208
O -1.050897158918 0.443480429664 0.219828169208
H 0.917102841082 0.461480429664 -2.285171830792
H -0.161897158918 -0.943519570336 -2.307171830792
H -0.838897158918 0.698480429664 -2.339171830792
Li 0.540176679927 -0.002523572613 4.246447374721
