8
Coordinates from XML
C -0.042336613772 0.074883932387 -1.933814739387
C -0.084336613772 0.083883932387 -0.422814739387
O 0.910663386228 -0.574116067613 0.113185260613
O -1.052336613772 0.443883932387 0.216185260613
H 0.915663386228 0.461883932387 -2.288814739387
H -0.163336613772 -0.943116067613 -2.310814739387
H -0.840336613772 0.698883932387 -2.342814739387
Li 0.552284283377 -0.005917531752 4.277088761308
