8
Coordinates from XML
C -0.043296250342 0.075152934202 -1.936243345117
C -0.085296250342 0.084152934202 -0.425243345117
O 0.909703749658 -0.573847065798 0.110756654883
O -1.053296250342 0.444152934202 0.213756654883
H 0.914703749658 0.462152934202 -2.291243345117
H -0.164296250342 -0.942847065798 -2.313243345117
H -0.841296250342 0.699152934202 -2.345243345117
Li 0.56035601901 -0.008180171179 4.297516352365
