8
Coordinates from XML
C -0.044735705197 0.075556436925 -1.939886253712
C -0.086735705197 0.084556436925 -0.428886253712
O 0.908264294803 -0.573443563075 0.107113746288
O -1.054735705197 0.444556436925 0.210113746288
H 0.913264294803 0.462556436925 -2.294886253712
H -0.165735705197 -0.942443563075 -2.316886253712
H -0.842735705197 0.699556436925 -2.348886253712
Li 0.57246362246 -0.011574130318 4.328157738952
