8
Coordinates from XML
C -0.027713580329 0.070784857107 -1.896807413976
C -0.069713580329 0.079784857107 -0.385807413976
O 0.925286419671 -0.578215142893 0.150192586024
O -1.037713580329 0.439784857107 0.253192586024
H 0.930286419671 0.457784857107 -2.251807413976
H -0.148713580329 -0.947215142893 -2.273807413976
H -0.825713580329 0.694784857107 -2.305807413976
Li 0.429286407062 0.028560783313 3.965811183288
