8
Coordinates from XML
C -0.028596362887 0.071032315487 -1.899041520979
C -0.070596362887 0.080032315487 -0.388041520979
O 0.924403637113 -0.577967684513 0.147958479021
O -1.038596362887 0.440032315487 0.250958479021
H 0.929403637113 0.458032315487 -2.254041520979
H -0.149596362887 -0.946967684513 -2.276041520979
H -0.826596362887 0.695032315487 -2.308041520979
Li 0.436711704993 0.02647935094 3.984602798438
