8
Coordinates from XML
C -0.029037754167 0.071156044677 -1.90015857448
C -0.071037754167 0.080156044677 -0.38915857448
O 0.923962245833 -0.577843955323 0.14684142552
O -1.039037754167 0.440156044677 0.24984142552
H 0.928962245833 0.458156044677 -2.25515857448
H -0.150037754167 -0.946843955323 -2.27715857448
H -0.827037754167 0.695156044677 -2.30915857448
Li 0.440424353959 0.025438634754 3.993998606013
