8
Coordinates from XML
C -0.029479145446 0.071279773867 -1.901275627981
C -0.071479145446 0.080279773867 -0.390275627981
O 0.923520854554 -0.577720226133 0.145724372019
O -1.039479145446 0.440279773867 0.248724372019
H 0.928520854554 0.458279773867 -2.256275627981
H -0.150479145446 -0.946720226133 -2.278275627981
H -0.827479145446 0.695279773867 -2.310275627981
Li 0.444137002924 0.024397918568 4.003394413589
