8
Coordinates from XML
C -0.030361928005 0.071527232247 -1.903509734984
C -0.072361928005 0.080527232247 -0.392509734984
O 0.922638071995 -0.577472767753 0.143490265016
O -1.040361928005 0.440527232247 0.246490265016
H 0.927638071995 0.458527232247 -2.258509734984
H -0.151361928005 -0.946472767753 -2.280509734984
H -0.828361928005 0.695527232247 -2.312509734984
Li 0.451562300855 0.022316486195 4.022186028739
