8
Coordinates from XML
C -0.031244710564 0.071774690626 -1.905743841987
C -0.073244710564 0.080774690626 -0.394743841987
O 0.921755289436 -0.577225309374 0.141256158013
O -1.041244710564 0.440774690626 0.244256158013
H 0.926755289436 0.458774690626 -2.260743841987
H -0.152244710564 -0.946225309374 -2.282743841987
H -0.829244710564 0.695774690626 -2.314743841987
Li 0.458987598786 0.020235053823 4.040977643889
