8
Coordinates from XML
C -0.031686101843 0.071898419816 -1.906860895488
C -0.073686101843 0.080898419816 -0.395860895488
O 0.921313898157 -0.577101580184 0.140139104512
O -1.041686101843 0.440898419816 0.243139104512
H 0.926313898157 0.458898419816 -2.261860895488
H -0.152686101843 -0.946101580184 -2.283860895488
H -0.829686101843 0.695898419816 -2.315860895488
Li 0.462700247751 0.019194337636 4.050373451464
