8
Coordinates from XML
C -0.033010275681 0.072269607386 -1.910212055993
C -0.075010275681 0.081269607386 -0.399212055993
O 0.919989724319 -0.576730392614 0.136787944007
O -1.043010275681 0.441269607386 0.239787944007
H 0.924989724319 0.459269607386 -2.265212055993
H -0.154010275681 -0.945730392614 -2.287212055993
H -0.831010275681 0.696269607386 -2.319212055993
Li 0.473838194648 0.016072189078 4.07856087419
