8
Coordinates from XML
C -0.033451666961 0.072393336576 -1.911329109494
C -0.075451666961 0.081393336576 -0.400329109494
O 0.919548333039 -0.576606663424 0.135670890506
O -1.043451666961 0.441393336576 0.238670890506
H 0.924548333039 0.459393336576 -2.266329109494
H -0.154451666961 -0.945606663424 -2.288329109494
H -0.831451666961 0.696393336576 -2.320329109494
Li 0.477550843613 0.015031472891 4.087956681765
