8
Coordinates from XML
C -0.035217232078 0.072888253336 -1.9157973235
C -0.077217232078 0.081888253336 -0.4047973235
O 0.917782767922 -0.576111746664 0.1312026765
O -1.045217232078 0.441888253336 0.2342026765
H 0.922782767922 0.459888253336 -2.2707973235
H -0.156217232078 -0.945111746664 -2.2927973235
H -0.833217232078 0.696888253336 -2.3247973235
Li 0.492401439475 0.010868608146 4.125539912066
