8
Coordinates from XML
C -0.036100014637 0.073135711715 -1.918031430502
C -0.078100014637 0.082135711715 -0.407031430502
O 0.916899985363 -0.575864288285 0.128968569498
O -1.046100014637 0.442135711715 0.231968569498
H 0.921899985363 0.460135711715 -2.273031430502
H -0.157100014637 -0.944864288285 -2.295031430502
H -0.834100014637 0.697135711715 -2.327031430502
Li 0.499826737406 0.008787175774 4.144331527216
