8
Coordinates from XML
C -0.036982797196 0.073383170095 -1.920265537505
C -0.078982797196 0.082383170095 -0.409265537505
O 0.916017202804 -0.575616829905 0.126734462495
O -1.046982797196 0.442383170095 0.229734462495
H 0.921017202804 0.460383170095 -2.275265537505
H -0.157982797196 -0.944616829905 -2.297265537505
H -0.834982797196 0.697383170095 -2.329265537505
Li 0.507252035337 0.006705743401 4.163123142367
