8
Coordinates from XML
C -0.037424188475 0.073506899285 -1.921382591006
C -0.079424188475 0.082506899285 -0.410382591006
O 0.915575811525 -0.575493100715 0.125617408994
O -1.047424188475 0.442506899285 0.228617408994
H 0.920575811525 0.460506899285 -2.276382591006
H -0.158424188475 -0.944493100715 -2.298382591006
H -0.835424188475 0.697506899285 -2.330382591006
Li 0.510964684303 0.005665027215 4.172518949942
