8
Coordinates from XML
C -0.038306971034 0.073754357665 -1.923616698009
C -0.080306971034 0.082754357665 -0.412616698009
O 0.914693028966 -0.575245642335 0.123383301991
O -1.048306971034 0.442754357665 0.226383301991
H 0.919693028966 0.460754357665 -2.278616698009
H -0.159306971034 -0.944245642335 -2.300616698009
H -0.836306971034 0.697754357665 -2.332616698009
Li 0.518389982233 0.003583594842 4.191310565092
