8
Coordinates from XML
C -0.038748362313 0.073878086855 -1.924733751511
C -0.080748362313 0.082878086855 -0.413733751511
O 0.914251637687 -0.575121913145 0.122266248489
O -1.048748362313 0.442878086855 0.225266248489
H 0.919251637687 0.460878086855 -2.279733751511
H -0.159748362313 -0.944121913145 -2.301733751511
H -0.836748362313 0.697878086855 -2.333733751511
Li 0.522102631199 0.002542878656 4.200706372667
