8
Coordinates from XML
C -0.039189753592 0.074001816045 -1.925850805012
C -0.081189753592 0.083001816045 -0.414850805012
O 0.913810246408 -0.574998183955 0.121149194988
O -1.049189753592 0.443001816045 0.224149194988
H 0.918810246408 0.461001816045 -2.280850805012
H -0.160189753592 -0.943998183955 -2.302850805012
H -0.837189753592 0.698001816045 -2.334850805012
Li 0.525815280164 0.00150216247 4.210102180242
