8
Coordinates from XML
C -0.039631144872 0.074125545235 -1.926967858513
C -0.081631144872 0.083125545235 -0.415967858513
O 0.913368855128 -0.574874454765 0.120032141487
O -1.049631144872 0.443125545235 0.223032141487
H 0.918368855128 0.461125545235 -2.281967858513
H -0.160631144872 -0.943874454765 -2.303967858513
H -0.837631144872 0.698125545235 -2.335967858513
Li 0.52952792913 0.000461446283 4.219497987818
