8
Coordinates from XML
C -0.041396709989 0.074620461994 -1.931436072519
C -0.083396709989 0.083620461994 -0.420436072519
O 0.911603290011 -0.574379538006 0.115563927481
O -1.051396709989 0.443620461994 0.218563927481
H 0.916603290011 0.461620461994 -2.286436072519
H -0.162396709989 -0.943379538006 -2.308436072519
H -0.839396709989 0.698620461994 -2.340436072519
Li 0.544378524992 -0.003701418462 4.257081218118
