8
Coordinates from XML
C -0.041838101269 0.074744191184 -1.93255312602
C -0.083838101269 0.083744191184 -0.42155312602
O 0.911161898731 -0.574255808816 0.11444687398
O -1.051838101269 0.443744191184 0.21744687398
H 0.916161898731 0.461744191184 -2.28755312602
H -0.162838101269 -0.943255808816 -2.30955312602
H -0.839838101269 0.698744191184 -2.34155312602
Li 0.548091173957 -0.004742134648 4.266477025693
