8
Coordinates from XML
C -0.042279492548 0.074867920374 -1.933670179522
C -0.084279492548 0.083867920374 -0.422670179522
O 0.910720507452 -0.574132079626 0.113329820478
O -1.052279492548 0.443867920374 0.216329820478
H 0.915720507452 0.461867920374 -2.288670179522
H -0.163279492548 -0.943132079626 -2.310670179522
H -0.840279492548 0.698867920374 -2.342670179522
Li 0.551803822923 -0.005782850834 4.275872833269
