8
Coordinates from XML
C -0.043162275107 0.075115378754 -1.935904286525
C -0.085162275107 0.084115378754 -0.424904286525
O 0.909837724893 -0.573884621246 0.111095713475
O -1.053162275107 0.444115378754 0.214095713475
H 0.914837724893 0.462115378754 -2.290904286525
H -0.164162275107 -0.942884621246 -2.312904286525
H -0.841162275107 0.699115378754 -2.344904286525
Li 0.559229120854 -0.007864283207 4.294664448419
