8
Coordinates from XML
C -0.045369231504 0.075734024704 -1.941489554032
C -0.087369231504 0.084734024704 -0.430489554032
O 0.907630768496 -0.573265975296 0.105510445968
O -1.055369231504 0.444734024704 0.208510445968
H 0.912630768496 0.462734024704 -2.296489554032
H -0.166369231504 -0.942265975296 -2.318489554032
H -0.843369231504 0.699734024704 -2.350489554032
Li 0.577792365681 -0.013067864138 4.341643486295
