8
Coordinates from XML
C 0.896968119908 -0.986643334502 -0.061580445232
C -0.127034064924 0.146123561811 -0.373436011644
O -0.110865298407 1.160042797612 0.410438666
O -0.881205944399 -0.066498099734 -1.389849027027
H 1.512251973454 -0.732125709296 0.802503660143
H 0.361170086699 -1.922529930282 0.128911718195
H 1.535111296979 -1.155342559691 -0.935120574199
Li 0.455199452759 -0.508139039155 2.977409712319
