8
Coordinates from XML
C 0.896968119908 -0.986643334502 -0.080706506995
C -0.127034064924 0.146123561811 -0.392562073406
O -0.110865298407 1.160042797612 0.391312604238
O -0.881205944399 -0.066498099734 -1.40897508879
H 1.512251973454 -0.732125709296 0.78337759838
H 0.361170086699 -1.922529930282 0.109785656433
H 1.535111296979 -1.155342559691 -0.954246635962
Li 0.455199452759 -0.508139039155 3.138283650557
