8
Coordinates from XML
C 0.896968119908 -0.986643334502 -0.099832568757
C -0.127034064924 0.146123561811 -0.411688135169
O -0.110865298407 1.160042797612 0.372186542475
O -0.881205944399 -0.066498099734 -1.428101150552
H 1.512251973454 -0.732125709296 0.764251536618
H 0.361170086699 -1.922529930282 0.09065959467
H 1.535111296979 -1.155342559691 -0.973372697724
Li 0.455199452759 -0.508139039155 3.299157588794
