8
Coordinates from XML
C 0.896968119908 -0.986643334502 -0.14871028215
C -0.127034064924 0.146123561811 -0.460565848562
O -0.110865298407 1.160042797612 0.323308829082
O -0.881205944399 -0.066498099734 -1.476978863945
H 1.512251973454 -0.732125709296 0.715373823225
H 0.361170086699 -1.922529930282 0.041781881277
H 1.535111296979 -1.155342559691 -1.022250411117
Li 0.455199452759 -0.508139039155 3.710279875402
