8
Coordinates from XML
C 0.896968119908 -0.986643334502 -0.157210754044
C -0.127034064924 0.146123561811 -0.469066320456
O -0.110865298407 1.160042797612 0.314808357188
O -0.881205944399 -0.066498099734 -1.48547933584
H 1.512251973454 -0.732125709296 0.70687335133
H 0.361170086699 -1.922529930282 0.033281409383
H 1.535111296979 -1.155342559691 -1.030750883012
Li 0.455199452759 -0.508139039155 3.781779403507
