8
Coordinates from XML
C 0.896968119908 -0.986643334502 -0.176336815807
C -0.127034064924 0.146123561811 -0.488192382218
O -0.110865298407 1.160042797612 0.295682295425
O -0.881205944399 -0.066498099734 -1.504605397602
H 1.512251973454 -0.732125709296 0.687747289568
H 0.361170086699 -1.922529930282 0.014155347621
H 1.535111296979 -1.155342559691 -1.049876944774
Li 0.455199452759 -0.508139039155 3.942653341745
