8
Coordinates from XML
C 0.896968119908 -0.986643334502 -0.203963349464
C -0.127034064924 0.146123561811 -0.515818915875
O -0.110865298407 1.160042797612 0.268055761768
O -0.881205944399 -0.066498099734 -1.532231931259
H 1.512251973454 -0.732125709296 0.660120755911
H 0.361170086699 -1.922529930282 -0.013471186036
H 1.535111296979 -1.155342559691 -1.077503478431
Li 0.455199452759 -0.508139039155 4.175026808088
