8
Coordinates from XML
C 0.896968119908 -0.986643334502 -0.223089411226
C -0.127034064924 0.146123561811 -0.534944977638
O -0.110865298407 1.160042797612 0.248929700006
O -0.881205944399 -0.066498099734 -1.551357993021
H 1.512251973454 -0.732125709296 0.640994694148
H 0.361170086699 -1.922529930282 -0.032597247799
H 1.535111296979 -1.155342559691 -1.096629540193
Li 0.455199452759 -0.508139039155 4.335900746325
