8
Coordinates from XML
C 0.896968119908 -0.986643334502 -0.267716888672
C -0.127034064924 0.146123561811 -0.579572455084
O -0.110865298407 1.160042797612 0.20430222256
O -0.881205944399 -0.066498099734 -1.595985470467
H 1.512251973454 -0.732125709296 0.596367216703
H 0.361170086699 -1.922529930282 -0.077224725245
H 1.535111296979 -1.155342559691 -1.141257017639
Li 0.455199452759 -0.508139039155 4.71127326888
