8
Coordinates from XML
C 0.063304843884 -1.288490831985 -0.631572542999
C -0.002950686173 0.186498159847 -0.132560630375
O 1.115142352865 0.737491186874 0.165814630346
O -1.182490808198 0.688793554008 -0.073712944544
H 1.094094563537 -1.64338077963 -0.670565645642
H -0.522805884986 -1.927995148888 0.036827755508
H -0.392197501105 -1.360900390405 -1.624564471212
Li 0.024585268546 -0.658283464311 1.421380878726
