8
Coordinates from XML
C 0.063304843884 -1.288490831985 -0.66769954855
C -0.002950686173 0.186498159847 -0.168687635926
O 1.115142352865 0.737491186874 0.129687624795
O -1.182490808198 0.688793554008 -0.109839950095
H 1.094094563537 -1.64338077963 -0.706692651193
H -0.522805884986 -1.927995148888 0.000700749957
H -0.392197501105 -1.360900390405 -1.660691476763
Li 0.024585268546 -0.658283464311 1.725253873175
