8
Coordinates from XML
C -1.074478875545 -0.825366939229 -0.120645736539
C 0.156573474708 0.118532600993 -0.270842204985
O 0.767868837257 0.433642256888 0.810720109668
O 0.421830708577 0.480053360915 -1.473347902524
H -1.230791995625 -1.103027158621 0.922649904301
H -1.96859307398 -0.325728875593 -0.508166216518
H -0.923119802896 -1.725201530411 -0.725746256764
Li -0.550101532501 -0.421013755008 2.224945956663
