8
Coordinates from XML
C -1.074478875545 -0.825366939229 -0.167398331958
C 0.156573474708 0.118532600993 -0.317594800404
O 0.767868837257 0.433642256888 0.763967514248
O 0.421830708577 0.480053360915 -1.520100497944
H -1.230791995625 -1.103027158621 0.875897308881
H -1.96859307398 -0.325728875593 -0.554918811937
H -0.923119802896 -1.725201530411 -0.772498852183
Li -0.550101532501 -0.421013755008 2.618193361243
