8
Coordinates from XML
C -1.074478875545 -0.825366939229 -0.173773685879
C 0.156573474708 0.118532600993 -0.323970154325
O 0.767868837257 0.433642256888 0.757592160328
O 0.421830708577 0.480053360915 -1.526475851865
H -1.230791995625 -1.103027158621 0.869521954961
H -1.96859307398 -0.325728875593 -0.561294165858
H -0.923119802896 -1.725201530411 -0.778874206104
Li -0.550101532501 -0.421013755008 2.671818007323
