8
Coordinates from XML
C -1.074478875545 -0.825366939229 -0.1801490398
C 0.156573474708 0.118532600993 -0.330345508246
O 0.767868837257 0.433642256888 0.751216806407
O 0.421830708577 0.480053360915 -1.532851205785
H -1.230791995625 -1.103027158621 0.86314660104
H -1.96859307398 -0.325728875593 -0.567669519779
H -0.923119802896 -1.725201530411 -0.785249560025
Li -0.550101532501 -0.421013755008 2.725442653402
