8
Coordinates from XML
C -1.074478875545 -0.825366939229 -0.273654230638
C 0.156573474708 0.118532600993 -0.423850699085
O 0.767868837257 0.433642256888 0.657711615568
O 0.421830708577 0.480053360915 -1.626356396624
H -1.230791995625 -1.103027158621 0.769641410201
H -1.96859307398 -0.325728875593 -0.661174710618
H -0.923119802896 -1.725201530411 -0.878754750863
Li -0.550101532501 -0.421013755008 3.511937462563
