8
Coordinates from XML
C 0.063304843884 -1.288490831985 -0.718702379917
C -0.002950686173 0.186498159847 -0.219690467293
O 1.115142352865 0.737491186874 0.078684793428
O -1.182490808198 0.688793554008 -0.160842781461
H 1.094094563537 -1.64338077963 -0.75769548256
H -0.522805884986 -1.927995148888 -0.050302081409
H -0.392197501105 -1.360900390405 -1.71169430813
Li 0.024585268546 -0.658283464311 2.154251041808
