8
Coordinates from XML
C 0.634822112441 1.059544928925 0.265208880134
C -0.09667831055 -0.152072589027 -0.38739002546
O -1.220455173265 -0.48536387396 0.131065023896
O 0.515750262681 -0.687339387293 -1.380113204375
H 0.051532937259 1.472161266939 1.089536654054
H 1.616936772916 0.741125159823 0.630325520679
H 0.809458407852 1.832986038745 -0.489807354064
Li 0.330195287048 0.540148792022 2.879832213552
