8
Coordinates from XML
C 0.634822112441 1.059544928925 0.254583290266
C -0.09667831055 -0.152072589027 -0.398015615328
O -1.220455173265 -0.48536387396 0.120439434028
O 0.515750262681 -0.687339387293 -1.390738794243
H 0.051532937259 1.472161266939 1.078911064186
H 1.616936772916 0.741125159823 0.619699930811
H 0.809458407852 1.832986038745 -0.500432943932
Li 0.330195287048 0.540148792022 2.969206623684
