8
Coordinates from XML
C 0.634822112441 1.059544928925 0.243957700398
C -0.09667831055 -0.152072589027 -0.408641205196
O -1.220455173265 -0.48536387396 0.10981384416
O 0.515750262681 -0.687339387293 -1.401364384111
H 0.051532937259 1.472161266939 1.068285474318
H 1.616936772916 0.741125159823 0.609074340943
H 0.809458407852 1.832986038745 -0.5110585338
Li 0.330195287048 0.540148792022 3.058581033816
