8
Coordinates from XML
C 0.634822112441 1.059544928925 0.224831638636
C -0.09667831055 -0.152072589027 -0.427767266959
O -1.220455173265 -0.48536387396 0.090687782398
O 0.515750262681 -0.687339387293 -1.420490445873
H 0.051532937259 1.472161266939 1.049159412556
H 1.616936772916 0.741125159823 0.58994827918
H 0.809458407852 1.832986038745 -0.530184595563
Li 0.330195287048 0.540148792022 3.219454972053
