8
Coordinates from XML
C 0.634822112441 1.059544928925 0.203580458899
C -0.09667831055 -0.152072589027 -0.449018446695
O -1.220455173265 -0.48536387396 0.069436602662
O 0.515750262681 -0.687339387293 -1.441741625609
H 0.051532937259 1.472161266939 1.02790823282
H 1.616936772916 0.741125159823 0.568697099444
H 0.809458407852 1.832986038745 -0.551435775299
Li 0.330195287048 0.540148792022 3.398203792317
