8
Coordinates from XML
C -0.446632271692 -1.276023010814 -0.053511262678
C 0.064274292849 0.183675939682 -0.246510398581
O 0.329125995507 0.540020835768 -1.44885188361
O 0.165607754549 0.872010071153 0.831917283548
H -0.522191487387 -1.794787640509 -1.010155839853
H 0.236495162607 -1.818711871705 0.608362007406
H -1.424438401439 -1.260640514898 0.438847398649
Li -0.228251279287 -0.650636598761 1.914299614983
