8
Coordinates from XML
C 0.825243963814 -0.158933358036 0.799469156027
C -0.122872645411 0.018403191212 -0.424712960261
O -1.061443783518 -0.845684018758 -0.547963389343
O 0.146604205142 1.01929975251 -1.181460549084
H 0.528522229072 -1.016936560027 1.404267883407
H 1.854420714873 -0.291523409688 0.449518287818
H 0.809556561715 0.74940233028 1.410565451781
Li 0.425718749384 -0.075138867501 2.832811982907
