8
Coordinates from XML
C 0.825243963814 -0.158933358036 0.746341206687
C -0.122872645411 0.018403191212 -0.477840909602
O -1.061443783518 -0.845684018758 -0.601091338683
O 0.146604205142 1.01929975251 -1.234588498424
H 0.528522229072 -1.016936560027 1.351139934067
H 1.854420714873 -0.291523409688 0.396390338478
H 0.809556561715 0.74940233028 1.357437502441
Li 0.425718749384 -0.075138867501 3.279684033566
