8
Coordinates from XML
C 0.825243963814 -0.158933358036 0.735715616819
C -0.122872645411 0.018403191212 -0.48846649947
O -1.061443783518 -0.845684018758 -0.611716928551
O 0.146604205142 1.01929975251 -1.245214088292
H 0.528522229072 -1.016936560027 1.340514344199
H 1.854420714873 -0.291523409688 0.38576474861
H 0.809556561715 0.74940233028 1.346811912573
Li 0.425718749384 -0.075138867501 3.369058443698
