156
Coordinates from XML
O -1.425760340532 1.655713325434 0.0
H -0.666760340532 1.015713325434 0.0
H -2.170760340532 1.050713325434 0.0
Cl 0.733928548357 -0.816886674566 0.0
O -1.648012497483 1.867918115448 0.0
H -0.889012497483 1.227918115448 0.0
H -2.393012497483 1.262918115448 0.0
Cl 0.848398613628 -0.926181884552 0.0
O -1.929531896289 2.136710849467 0.0
H -1.170531896289 1.496710849467 0.0
H -2.674531896289 1.531710849467 0.0
Cl 0.993394029637 -1.064622483866 0.0
O -2.270318536948 2.46209152749 0.0
H -1.511318536948 1.82209152749 0.0
H -3.015318536948 1.85709152749 0.0
Cl 1.168914796385 -1.23220847251 0.0
O -2.670372419461 2.844060149516 0.0
H -1.911372419461 2.204060149516 0.0
H -3.415372419461 2.239060149516 0.0
Cl 1.374960913872 -1.428939850484 0.0
O -1.458299006594 1.627745246375 0.0
H -0.700299006594 0.994745246375 0.0
H -2.199299006594 1.021745246375 0.0
Cl 0.750600993406 -0.802654753625 0.0
O -1.527030639081 1.712891180782 0.0
H -0.769030639081 1.079891180782 0.0
H -2.268030639081 1.106891180782 0.0
Cl 0.786000939867 -0.846508819218 0.0
O -1.577433836238 1.775331532681 0.0
H -0.819433836238 1.142331532681 0.0
H -2.318433836238 1.169331532681 0.0
Cl 0.811960900605 -0.878668467319 0.0
O -1.609508598065 1.815066302071 0.0
H -0.851508598065 1.182066302071 0.0
H -2.350508598065 1.209066302071 0.0
Cl 0.82848087562 -0.899133697929 0.0
O -1.623254924562 1.832095488952 0.0
H -0.865254924562 1.199095488952 0.0
H -2.364254924562 1.226095488952 0.0
Cl 0.835560864912 -0.907904511048 0.0
O -1.618672815729 1.826419093325 0.0
H -0.860672815729 1.193419093325 0.0
H -2.359672815729 1.220419093325 0.0
Cl 0.833200868481 -0.904980906675 0.0
O -1.595762271567 1.798037115189 0.0
H -0.837762271567 1.165037115189 0.0
H -2.336762271567 1.192037115189 0.0
Cl 0.821400886327 -0.890362884811 0.0
O -1.554523292075 1.746949554545 0.0
H -0.796523292075 1.113949554545 0.0
H -2.295523292075 1.140949554545 0.0
Cl 0.800160918451 -0.864050445455 0.0
O -1.494955877254 1.673156411392 0.0
H -0.736955877254 1.040156411392 0.0
H -2.235955877254 1.067156411392 0.0
Cl 0.769480964852 -0.826043588608 0.0
O -1.417060027102 1.576657685731 0.0
H -0.659060027102 0.943657685731 0.0
H -2.158060027102 0.970657685731 0.0
Cl 0.729361025529 -0.776342314269 0.0
O -1.506665710937 1.687662755773 0.0
H -0.748665710937 1.054662755773 0.0
H -2.247665710937 1.081662755773 0.0
Cl 0.775512066841 -0.833515022005 0.0
O -1.516339051805 1.699646257652 0.0
H -0.758339051805 1.066646257652 0.0
H -2.257339051805 1.093646257652 0.0
Cl 0.780494281528 -0.839687075681 0.0
O -1.4873190292 1.663695752013 0.0
H -0.7293190292 1.030695752013 0.0
H -2.2283190292 1.057695752013 0.0
Cl 0.765547637467 -0.821170914653 0.0
O -1.535861612467 1.723831143263 0.0
H -0.777861612467 1.090831143263 0.0
H -2.276861612467 1.117831143263 0.0
Cl 0.790549296624 -0.852143402191 0.0
O -1.603926756396 1.808151420125 0.0
H -0.845926756396 1.175151420125 0.0
H -2.344926756396 1.202151420125 0.0
Cl 0.825605970877 -0.895572216239 0.0
O -1.662494438382 1.880706076959 0.0
H -0.904494438382 1.247706076959 0.0
H -2.403494438382 1.274706076959 0.0
Cl 0.855771016164 -0.932941195768 0.0
O -1.711564658423 1.941495113766 0.0
H -0.953564658423 1.308495113766 0.0
H -2.452564658423 1.335495113766 0.0
Cl 0.881044432486 -0.964250340779 0.0
O -1.751137416522 1.990518530546 0.0
H -0.993137416522 1.357518530546 0.0
H -2.492137416522 1.384518530546 0.0
Cl 0.901426219842 -0.989499651272 0.0
O -1.781212712676 2.027776327299 0.0
H -1.023212712676 1.394776327299 0.0
H -2.522212712676 1.421776327299 0.0
Cl 0.916916378233 -1.008689127247 0.0
O -1.801790546888 2.053268504024 0.0
H -1.043790546888 1.420268504024 0.0
H -2.542790546888 1.447268504024 0.0
Cl 0.927514907658 -1.021818768703 0.0
O -1.812870919155 2.066995060723 0.0
H -1.054870919155 1.433995060723 0.0
H -2.553870919155 1.460995060723 0.0
Cl 0.933221808118 -1.028888575641 0.0
O -1.806539277859 2.059151314038 0.0
H -1.048539277859 1.426151314038 0.0
H -2.547539277859 1.453151314038 0.0
Cl 0.929960722141 -1.024848685962 0.0
O -1.789127264296 2.037581010655 0.0
H -1.031127264296 1.404581010655 0.0
H -2.530127264296 1.431581010655 0.0
Cl 0.920992735704 -1.013738989345 0.0
O -1.419639333763 1.684972386328 0.0
H -0.658639333763 1.047972386328 0.0
H -2.162639333763 1.075972386328 0.0
Cl 0.730660666237 -0.831927613672 0.0
O -1.485452868131 1.774026487859 0.0
H -0.724452868131 1.137026487859 0.0
H -2.228452868131 1.165026487859 0.0
Cl 0.764557658185 -0.877794564773 0.0
O -1.533716126667 1.839332828982 0.0
H -0.772716126667 1.202332828982 0.0
H -2.276716126667 1.230332828982 0.0
Cl 0.789415452281 -0.911430328913 0.0
O -1.564429109372 1.880891409696 0.0
H -0.803429109372 1.243891409696 0.0
H -2.307429109372 1.271891409696 0.0
Cl 0.805234048523 -0.932834906093 0.0
O -1.577591816245 1.898702230002 0.0
H -0.816591816245 1.261702230002 0.0
H -2.320591816245 1.289702230002 0.0
Cl 0.812013446913 -0.942008296314 0.0
O -1.573204247287 1.8927652899 0.0
H -0.812204247287 1.2557652899 0.0
H -2.316204247287 1.2837652899 0.0
Cl 0.80975364745 -0.938950499573 0.0
O -1.551266402498 1.86308058939 0.0
H -0.790266402498 1.22608058939 0.0
H -2.294266402498 1.25408058939 0.0
Cl 0.798454650133 -0.923661515873 0.0
O -1.511778281878 1.809648128471 0.0
H -0.750778281878 1.172648128471 0.0
H -2.254778281878 1.200648128471 0.0
Cl 0.778116454964 -0.896141345213 0.0
O -1.454739885426 1.732467907144 0.0
H -0.693739885426 1.095467907144 0.0
H -2.197739885426 1.123467907144 0.0
Cl 0.748739061942 -0.856389987593 0.0
O -1.380151213143 1.631539925409 0.0
H -0.619151213143 0.994539925409 0.0
H -2.123151213143 1.022539925409 0.0
Cl 0.710322471068 -0.804407443012 0.0
O -1.347687718959 1.628710065019 -0.011524403215
H -0.586687718959 0.991710065019 -0.011524403215
H -2.090687718959 1.019710065019 -0.011524403215
Cl 0.693602281041 -0.802949934981 0.005935596785
