7
Coordinates from XML
O -0.705519529043 -0.842024263062 -1.384225366495
O 0.644796135469 0.682241428364 -0.330568141344
C 0.059439871004 0.156413338485 -1.314330644972
H 0.255854150763 0.673348358411 -2.314083552385
O -0.009100598721 0.064798011445 2.525423770135
H 0.752582635267 -0.432289953774 2.212591904917
H -0.608019719369 -0.595967155955 2.885710947914
