7
Coordinates from XML
O 0.91354881425 0.627230275608 -1.394551243584
O -0.787715529818 -0.846029368776 -0.956216335284
C -0.123182429452 0.214157472102 -0.810184075327
H -0.53026676876 0.922118882074 -0.011197690787
O -0.059221907514 -0.023150886751 2.643735837997
H 0.785035393312 -0.478201873379 2.716397929705
H 0.154772569339 0.846068419556 2.291903873249
