7
Coordinates from XML
O 0.168838653397 0.711502914617 -0.157261152003
O -0.38547343429 -0.866137108209 -1.725929985066
C 0.21203613926 0.151356744908 -1.284778799659
H 0.912948687144 0.651731689213 -2.035546923203
O -0.058784208769 0.012878972739 2.616600876836
H 0.260935256233 0.249505953412 3.492334115737
H 0.672537303986 -0.453658250255 2.20110907843
