7
Coordinates from XML
O 0.906408502232 -0.535234736609 -0.610451661933
O -0.70016082785 0.508277141451 -1.870193614868
C -0.201875202285 0.026388135822 -0.818328499176
H -0.869100043244 0.113565854616 0.104990144063
O 0.059132262324 -0.010078788664 2.768576380788
H -0.697434979638 -0.603727640033 2.786143954824
H -0.241543704737 0.763757060765 2.282887580247
