7
Coordinates from XML
O -0.064672489493 0.925045522547 -0.395137141907
O -0.208899025716 -0.761932975843 -1.941175334262
C 0.267782413432 -0.159657707304 -0.942693934096
H 1.152926841355 -0.68732632254 -0.449346759975
O 0.032865525244 0.03409008022 2.773311337558
H -0.637012771837 0.361506374619 2.165706854969
H 0.115825345928 -0.902911878689 2.572646026272
