7
Coordinates from XML
O 0.300682804459 0.687761675582 -2.067688225134
O -0.444569060499 -0.386464084458 -0.184188685913
C 0.140833799511 -0.294929198358 -1.295876886858
H 0.606392231714 -1.269744196192 -1.667760371571
O -0.019673521692 -0.061176673403 2.943935291404
H 0.880809640322 0.276768454401 2.937246829454
H -0.568273430826 0.693753964815 3.176828917717
