7
Coordinates from XML
O -0.214888870683 0.203785756069 -2.41920272976
O 0.062847461829 0.113400413742 -0.145082051455
C 0.148821362407 -0.310462825247 -1.328244864872
H 0.640732001498 -1.336687104764 -1.429209766085
O -0.00566540562 0.039789364772 3.293921499887
H 0.801088439531 -0.341787429454 2.935216950932
H -0.710889317078 -0.290358577197 2.729312660847
