7
Coordinates from XML
O 0.855997086455 -0.076736889618 -0.501618441488
O -1.045853794959 -0.029280835712 -1.781322699438
C 0.185833819129 0.103766449305 -1.552915516422
H 0.800184832091 0.446766665856 -2.4530432542
O 0.02223712795 -0.03970959021 3.246455506566
H 0.524383300117 0.350622922628 2.524921500992
H -0.877015198351 0.27987932569 3.126748579133
