7
Coordinates from XML
O 0.289202184622 0.115865972708 -1.323714102989
O -1.212797815378 -0.788134027292 0.112285897011
C -0.746797815378 -0.543134027292 -1.034714102989
H -1.329797815378 -0.967134027292 -1.910714102989
O 1.430491677616 1.041396978088 1.930426498512
H 0.606491677616 0.497396978088 1.868426498512
H 1.570491677616 1.078396978088 0.951426498512
