7
Coordinates from XML
O 0.283412860579 0.111775169355 -1.329302475289
O -1.218587139421 -0.792224830645 0.106697524711
C -0.752587139421 -0.547224830645 -1.040302475289
H -1.335587139421 -0.971224830645 -1.916302475289
O 1.444955743921 1.051617454692 1.944388506317
H 0.620955743921 0.507617454692 1.882388506317
H 1.584955743921 1.088617454692 0.965388506317
