7
Coordinates from XML
O 0.281965529568 0.110752468517 -1.330699568364
O -1.220034470432 -0.793247531483 0.105300431636
C -0.754034470432 -0.548247531483 -1.041699568364
H -1.337034470432 -0.972247531483 -1.917699568364
O 1.448571760497 1.054172573843 1.947879008269
H 0.624571760497 0.510172573843 1.885879008269
H 1.588571760497 1.091172573843 0.968879008269
