7
Coordinates from XML
O 0.261702895415 0.09643465678 -1.350258871414
O -1.240297104585 -0.80756534322 0.085741128586
C -0.774297104585 -0.56256534322 -1.061258871414
H -1.357297104585 -0.98656534322 -1.937258871414
O 1.499195992565 1.089944241957 1.996746035587
H 0.675195992565 0.545944241957 1.934746035587
H 1.639195992565 1.126944241957 1.017746035587
