7
Coordinates from XML
O 0.287368898675 0.114570551646 -1.325483754218
O -1.214631101325 -0.789429448354 0.110516245782
C -0.748631101325 -0.544429448354 -1.036483754218
H -1.331631101325 -0.968429448354 -1.912483754218
O 1.435071965279 1.044633462346 1.934847800984
H 0.611071965279 0.500633462346 1.872847800984
H 1.575071965279 1.081633462346 0.955847800984
