7
Coordinates from XML
O 0.284924517412 0.112843323564 -1.327843289189
O -1.217075482588 -0.791156676436 0.108156710811
C -0.751075482588 -0.546156676436 -1.038843289189
H -1.334075482588 -0.970156676436 -1.914843289189
O 1.441179015497 1.04894877469 1.940742870946
H 0.617179015497 0.50494877469 1.878742870946
H 1.581179015497 1.08594877469 0.961742870946
