7
Coordinates from XML
O 0.281257945518 0.11025248144 -1.331382591645
O -1.220742054482 -0.79374751856 0.104617408355
C -0.754742054482 -0.54874751856 -1.042382591645
H -1.337742054482 -0.97274751856 -1.918382591645
O 1.450339590823 1.055421743206 1.949585475889
H 0.626339590823 0.511421743206 1.887585475889
H 1.590339590823 1.092421743206 0.970585475889
