7
Coordinates from XML
O 0.280035754886 0.109388867399 -1.332562359131
O -1.221964245114 -0.794611132601 0.103437640869
C -0.755964245114 -0.549611132601 -1.043562359131
H -1.338964245114 -0.973611132601 -1.919562359131
O 1.453393115932 1.057579399378 1.95253301087
H 0.629393115932 0.513579399378 1.89053301087
H 1.593393115932 1.094579399378 0.97353301087
