7
Coordinates from XML
O 0.283702326781 0.111979709523 -1.329023056674
O -1.218297673219 -0.792020290477 0.106976943326
C -0.752297673219 -0.547020290477 -1.040023056674
H -1.335297673219 -0.971020290477 -1.916023056674
O 1.444232540606 1.051106430862 1.943690405927
H 0.620232540606 0.507106430862 1.881690405927
H 1.584232540606 1.088106430862 0.964690405927
