7
Coordinates from XML
O 0.281437679434 0.110379483505 -1.331209096427
O -1.220562320566 -0.793620516495 0.104790903573
C -0.754562320566 -0.548620516495 -1.042209096427
H -1.337562320566 -0.972620516495 -1.918209096427
O 1.449890543013 1.055104440827 1.949152014863
H 0.625890543013 0.511104440827 1.887152014863
H 1.589890543013 1.092104440827 0.970152014863
