7
Coordinates from XML
O 0.279173032088 0.108779257487 -1.33339513618
O -1.222826967912 -0.795220742513 0.10260486382
C -0.756826967912 -0.550220742513 -1.04439513618
H -1.339826967912 -0.974220742513 -1.92039513618
O 1.455548545421 1.059102450793 1.954613623798
H 0.631548545421 0.515102450793 1.892613623798
H 1.595548545421 1.096102450793 0.975613623798
