7
Coordinates from XML
O 0.276908384741 0.10717903147 -1.335581175932
O -1.225091615259 -0.79682096853 0.100418824068
C -0.759091615259 -0.55182096853 -1.046581175932
H -1.342091615259 -0.97582096853 -1.922581175932
O 1.461206547828 1.063100460759 1.960075232734
H 0.637206547828 0.519100460759 1.898075232734
H 1.601206547828 1.100100460759 0.981075232734
