7
Coordinates from XML
O 0.274643737395 0.105578805452 -1.337767215685
O -1.227356262605 -0.798421194548 0.098232784315
C -0.761356262605 -0.553421194548 -1.048767215685
H -1.344356262605 -0.977421194548 -1.924767215685
O 1.466864550236 1.067098470724 1.965536841669
H 0.642864550236 0.523098470724 1.903536841669
H 1.606864550236 1.104098470724 0.986536841669
