7
Coordinates from XML
O 0.263320500662 0.097577675364 -1.348697414448
O -1.238679499338 -0.806422324636 0.087302585552
C -0.772679499338 -0.561422324636 -1.059697414448
H -1.355679499338 -0.985422324636 -1.935697414448
O 1.495154562274 1.087088520553 1.992844886347
H 0.671154562274 0.543088520553 1.930844886347
H 1.635154562274 1.124088520553 1.013844886347
