7
Coordinates from XML
O 0.254261911276 0.091176771294 -1.357441573459
O -1.247738088724 -0.812823228706 0.078558426541
C -0.781738088724 -0.567823228706 -1.068441573459
H -1.364738088724 -0.991823228706 -1.944441573459
O 1.517786571904 1.103080560416 2.01469132209
H 0.693786571904 0.559080560416 1.95269132209
H 1.657786571904 1.140080560416 1.03569132209
