7
Coordinates from XML
O 0.25199726393 0.089576545277 -1.359627613211
O -1.25000273607 -0.814423454723 0.076372386789
C -0.78400273607 -0.569423454723 -1.070627613211
H -1.36700273607 -0.993423454723 -1.946627613211
O 1.523444574312 1.107078570381 2.020152931025
H 0.699444574312 0.563078570381 1.958152931025
H 1.663444574312 1.144078570381 1.041152931025
