7
Coordinates from XML
O 0.24520332189 0.084775867224 -1.366185732469
O -1.25679667811 -0.819224132776 0.069814267531
C -0.79079667811 -0.574224132776 -1.077185732469
H -1.37379667811 -0.998224132776 -1.953185732469
O 1.540418581535 1.119072600279 2.036537757832
H 0.716418581535 0.575072600279 1.974537757832
H 1.680418581535 1.156072600279 1.057537757832
