7
Coordinates from XML
O 0.242938674544 0.083175641206 -1.368371772222
O -1.259061325456 -0.820824358794 0.067628227778
C -0.793061325456 -0.575824358794 -1.079371772222
H -1.376061325456 -0.999824358794 -1.955371772222
O 1.546076583942 1.123070610244 2.041999366768
H 0.722076583942 0.579070610244 1.979999366768
H 1.686076583942 1.160070610244 1.062999366768
