7
Coordinates from XML
O 0.240674027197 0.081575415189 -1.370557811975
O -1.261325972803 -0.822424584811 0.065442188025
C -0.795325972803 -0.577424584811 -1.081557811975
H -1.378325972803 -1.001424584811 -1.957557811975
O 1.55173458635 1.12706862021 2.047460975703
H 0.72773458635 0.58306862021 1.985460975703
H 1.69173458635 1.16406862021 1.068460975703
