7
Coordinates from XML
O 0.233880085158 0.076774737136 -1.377115931233
O -1.268119914842 -0.827225262864 0.058884068767
C -0.802119914842 -0.582225262864 -1.088115931233
H -1.385119914842 -1.006225262864 -1.964115931233
O 1.568708593573 1.139062650107 2.06384580251
H 0.744708593573 0.595062650107 2.00184580251
H 1.708708593573 1.176062650107 1.08484580251
