7
Coordinates from XML
O 0.231615437811 0.075174511118 -1.379301970985
O -1.270384562189 -0.828825488882 0.056698029015
C -0.804384562189 -0.583825488882 -1.090301970985
H -1.387384562189 -1.007825488882 -1.966301970985
O 1.57436659598 1.143060660073 2.069307411446
H 0.75036659598 0.599060660073 2.007307411446
H 1.71436659598 1.180060660073 1.090307411446
