7
Coordinates from XML
O 0.229350790465 0.073574285101 -1.381488010738
O -1.272649209535 -0.830425714899 0.054511989262
C -0.806649209535 -0.585425714899 -1.092488010738
H -1.389649209535 -1.009425714899 -1.968488010738
O 1.580024598388 1.147058670038 2.074769020381
H 0.756024598388 0.603058670038 2.012769020381
H 1.720024598388 1.184058670038 1.095769020381
