7
Coordinates from XML
O 0.227086143118 0.071974059083 -1.383674050491
O -1.274913856882 -0.832025940917 0.052325949509
C -0.808913856882 -0.587025940917 -1.094674050491
H -1.391913856882 -1.011025940917 -1.970674050491
O 1.585682600796 1.151056680004 2.080230629317
H 0.761682600796 0.607056680004 2.018230629317
H 1.725682600796 1.188056680004 1.101230629317
