7
Coordinates from XML
O 0.220292201079 0.067173381031 -1.390232169749
O -1.281707798921 -0.836826618969 0.045767830251
C -0.815707798921 -0.591826618969 -1.101232169749
H -1.398707798921 -1.015826618969 -1.977232169749
O 1.602656608018 1.163050709901 2.096615456124
H 0.778656608018 0.619050709901 2.034615456124
H 1.742656608018 1.200050709901 1.117615456124
