7
Coordinates from XML
O 0.218027553732 0.065573155013 -1.392418209501
O -1.283972446268 -0.838426844987 0.043581790499
C -0.817972446268 -0.593426844987 -1.103418209501
H -1.400972446268 -1.017426844987 -1.979418209501
O 1.608314610426 1.167048719867 2.102077065059
H 0.784314610426 0.623048719867 2.040077065059
H 1.748314610426 1.204048719867 1.123077065059
