7
Coordinates from XML
O 0.213498259039 0.062372702978 -1.396790289007
O -1.288501740961 -0.841627297022 0.039209710993
C -0.822501740961 -0.596627297022 -1.107790289007
H -1.405501740961 -1.020627297022 -1.983790289007
O 1.619630615241 1.175044739798 2.113000282931
H 0.795630615241 0.631044739798 2.051000282931
H 1.759630615241 1.212044739798 1.134000282931
