7
Coordinates from XML
O 0.211233611693 0.06077247696 -1.398976328759
O -1.290766388307 -0.84322752304 0.037023671241
C -0.824766388307 -0.59822752304 -1.109976328759
H -1.407766388307 -1.02222752304 -1.985976328759
O 1.625288617649 1.179042749764 2.118461891866
H 0.801288617649 0.635042749764 2.056461891866
H 1.765288617649 1.216042749764 1.139461891866
