7
Coordinates from XML
O 0.206704317 0.057572024925 -1.403348408265
O -1.295295683 -0.846427975075 0.032651591735
C -0.829295683 -0.601427975075 -1.114348408265
H -1.412295683 -1.025427975075 -1.990348408265
O 1.636604622464 1.187038769695 2.129385109737
H 0.812604622464 0.643038769695 2.067385109737
H 1.776604622464 1.224038769695 1.150385109737
