7
Coordinates from XML
O -0.538549804894 0.395713553407 -0.007034611492
O 0.773809427778 -0.059430644002 -1.862606040464
C -0.123997186326 -0.310752467136 -0.988095337256
H -0.632376676468 -1.318754327478 -1.100477390865
O -0.082989583283 0.043824009544 2.390385916627
H -0.938350808785 -0.411805153634 2.337068695781
H 0.630504712135 -0.601936769817 2.263885352535
