7
Coordinates from XML
O -0.538549804894 0.395713553407 -0.024185292768
O 0.773809427778 -0.059430644002 -1.879756721739
C -0.123997186326 -0.310752467136 -1.005246018531
H -0.632376676468 -1.318754327478 -1.11762807214
O -0.082989583283 0.043824009544 2.433235235351
H -0.938350808785 -0.411805153634 2.379918014506
H 0.630504712135 -0.601936769817 2.306734671259
