7
Coordinates from XML
O -0.906475107639 0.629858075889 -1.313740542209
O 0.490428135601 -0.860386616915 -0.218103554597
C 0.155762269331 -0.064089015578 -1.160386544571
H 0.921621448896 0.043417757945 -1.990476415095
O 0.223977549601 0.307095588626 2.248075088124
H -0.355516387396 -0.201150373138 2.837953300813
H 0.627541397436 -0.294345064482 1.601941318709
