7
Coordinates from XML
O -0.906475107639 0.629858075889 -1.370909479794
O 0.490428135601 -0.860386616915 -0.275272492182
C 0.155762269331 -0.064089015578 -1.217555482156
H 0.921621448896 0.043417757945 -2.04764535268
O 0.223977549601 0.307095588626 2.390906150539
H -0.355516387396 -0.201150373138 2.980784363228
H 0.627541397436 -0.294345064482 1.744772381124
