7
Coordinates from XML
O -0.906475107639 0.629858075889 -1.485247354964
O 0.490428135601 -0.860386616915 -0.389610367352
C 0.155762269331 -0.064089015578 -1.331893357326
H 0.921621448896 0.043417757945 -2.161983227851
O 0.223977549601 0.307095588626 2.676568275369
H -0.355516387396 -0.201150373138 3.266446488058
H 0.627541397436 -0.294345064482 2.030434505953
