7
Coordinates from XML
O -0.906475107639 0.629858075889 -1.513831823756
O 0.490428135601 -0.860386616915 -0.418194836145
C 0.155762269331 -0.064089015578 -1.360477826119
H 0.921621448896 0.043417757945 -2.190567696643
O 0.223977549601 0.307095588626 2.747983806577
H -0.355516387396 -0.201150373138 3.337862019266
H 0.627541397436 -0.294345064482 2.101850037161
