7
Coordinates from XML
O -0.906475107639 0.629858075889 -1.628169698926
O 0.490428135601 -0.860386616915 -0.532532711315
C 0.155762269331 -0.064089015578 -1.474815701289
H 0.921621448896 0.043417757945 -2.304905571813
O 0.223977549601 0.307095588626 3.033645931406
H -0.355516387396 -0.201150373138 3.623524144095
H 0.627541397436 -0.294345064482 2.387512161991
