7
Coordinates from XML
O 0.725397865343 -0.969318966611 -1.220654533509
O -0.48390062766 1.007217732838 -1.161593932569
C 0.050260008055 -0.040189641478 -0.659997927185
H -0.098263877514 -0.164391699555 0.457884752978
O -0.301130554234 0.011193393498 2.508746475199
H 0.047430697957 0.331769248023 3.355988861672
H 0.398819882445 -0.467974572626 2.036993432916
