7
Coordinates from XML
O 0.725397865343 -0.969318966611 -1.277823471094
O -0.48390062766 1.007217732838 -1.218762870154
C 0.050260008055 -0.040189641478 -0.71716686477
H -0.098263877514 -0.164391699555 0.400715815393
O -0.301130554234 0.011193393498 2.651577537614
H 0.047430697957 0.331769248023 3.498819924087
H 0.398819882445 -0.467974572626 2.179824495331
