7
Coordinates from XML
O 0.725397865343 -0.969318966611 -1.420745815056
O -0.48390062766 1.007217732838 -1.361685214117
C 0.050260008055 -0.040189641478 -0.860089208733
H -0.098263877514 -0.164391699555 0.257793471431
O -0.301130554234 0.011193393498 3.008655193651
H 0.047430697957 0.331769248023 3.855897580124
H 0.398819882445 -0.467974572626 2.536902151368
