7
Coordinates from XML
O 0.725397865343 -0.969318966611 -1.472197858883
O -0.48390062766 1.007217732838 -1.413137257943
C 0.050260008055 -0.040189641478 -0.911541252559
H -0.098263877514 -0.164391699555 0.206341427604
O -0.301130554234 0.011193393498 3.137203149825
H 0.047430697957 0.331769248023 3.984445536297
H 0.398819882445 -0.467974572626 2.665450107542
