7
Coordinates from XML
O 0.725397865343 -0.969318966611 -1.489348540158
O -0.48390062766 1.007217732838 -1.430287939219
C 0.050260008055 -0.040189641478 -0.928691933835
H -0.098263877514 -0.164391699555 0.189190746329
O -0.301130554234 0.011193393498 3.180052468549
H 0.047430697957 0.331769248023 4.027294855022
H 0.398819882445 -0.467974572626 2.708299426266
