7
Coordinates from XML
O -0.234226830816 0.054475578916 -2.185575820197
O -0.31692172988 0.107810072231 0.130218926649
C 0.231112052792 -0.101445068421 -1.005500935067
H 1.297536005372 -0.485735044503 -0.958507849711
O 0.266608062954 -0.037879530702 2.487125760352
H -0.461567728229 -0.502332611476 2.929987860068
H 0.928084288376 0.221541295844 3.148362120835
