7
Coordinates from XML
O -0.601705909481 0.927891867791 -1.113994007224
O 0.40528826333 -1.156805261796 -1.001793571194
C 0.241415499679 0.069954832345 -0.682116024449
H 0.956368390716 0.457806283325 0.108807990862
O -0.098488501541 0.142436855302 2.347493818921
H 0.155162704598 -0.040531677685 1.428653752299
H 0.694350480125 0.122230613633 2.907030719776
