7
Coordinates from XML
O -0.601705909481 0.927891867791 -1.131144688499
O 0.40528826333 -1.156805261796 -1.018944252469
C 0.241415499679 0.069954832345 -0.699266705724
H 0.956368390716 0.457806283325 0.091657309586
O -0.098488501541 0.142436855302 2.390343137646
H 0.155162704598 -0.040531677685 1.471503071023
H 0.694350480125 0.122230613633 2.949880038501
