7
Coordinates from XML
O -0.601705909481 0.927891867791 -1.182596732326
O 0.40528826333 -1.156805261796 -1.070396296296
C 0.241415499679 0.069954832345 -0.750718749551
H 0.956368390716 0.457806283325 0.04020526576
O -0.098488501541 0.142436855302 2.518891093819
H 0.155162704598 -0.040531677685 1.600051027197
H 0.694350480125 0.122230613633 3.078427994674
