7
Coordinates from XML
O -0.601705909481 0.927891867791 -1.199747413601
O 0.40528826333 -1.156805261796 -1.087546977572
C 0.241415499679 0.069954832345 -0.767869430826
H 0.956368390716 0.457806283325 0.023054584484
O -0.098488501541 0.142436855302 2.561740412544
H 0.155162704598 -0.040531677685 1.642900345921
H 0.694350480125 0.122230613633 3.121277313399
