9
Coordinates from XML
N 0.0516497 -0.0918775 -2.0419
C -0.0591313 0.105213 -0.583733
H 0.985606 0.168003 -2.38531
H -0.63531 0.480108 -2.55063
H -0.111061 -1.07394 -2.30075
H 0.122809 1.16105 -0.374712
H 0.691739 -0.525147 -0.103524
H -1.06719 -0.186552 -0.282962
F -8.74267e-06 1.55572e-05 2.29799
