9
Coordinates from XML
N -0.445976599977 -0.109101398256 -0.805195776988
C 0.510674856605 0.124934643689 -1.904025527991
H -0.374817073102 0.621121367551 -0.084467829679
H -0.276032611221 -1.013983597697 -0.346733940168
H -1.41597860936 -0.112856246798 -1.147250016702
H 1.5160101785 0.117423851463 -1.478783234057
H 0.279164608608 1.095291087133 -2.347390375198
H 0.386267165197 -0.679027053324 -2.631996609871
F 7.5508466e-05 1.8473113e-05 2.222451584975
