9
Coordinates from XML
N -0.06468166578 -0.577243819256 -0.911706979767
C 0.074077109518 0.660976037517 -1.702237996597
H 0.672536630587 -0.651053432432 -0.198405455512
H -0.002019029475 -1.412205089367 -1.509028569387
H -0.970375377578 -0.611895193472 -0.425458809925
H 1.049896103587 0.637557584516 -2.19092541906
H -0.000748827943 1.506014372122 -1.01516281721
H -0.732809716195 0.680038802202 -2.437318836705
F 1.0953584e-05 9.773162e-05 2.159692349982
