9
Coordinates from XML
N 0.155565607689 -0.038399230884 -2.276733744845
C -0.178127768221 0.043982379529 -0.841727228783
H 0.788317422877 0.721811042 -2.558590483948
H -0.687646597813 0.027830624715 -2.861957456531
H 0.6201882814 -0.927700067593 -2.502983370042
H -0.665858860005 1.004791286119 -0.66693833576
H 0.753266102424 -0.031938252201 -0.277366948994
H -0.848316081788 -0.785075529631 -0.606601331405
F -2.633774e-05 6.503796e-06 2.712363409191
