9
Coordinates from XML
N 0.151642586179 -0.007508983086 -2.167042245036
C -0.173637077683 0.008611641736 -0.727835878411
H 0.699437122441 0.820093809559 -2.436731888233
H -0.700019228897 -0.016227607239 -2.743649692382
H 0.703271912463 -0.838777266143 -2.417276591134
H -0.756182076321 0.909713945676 -0.527230563436
H 0.766510952114 0.017279722405 -0.17303180809
H -0.752042978327 -0.890311520239 -0.506121325516
F -2.5673809e-05 1.273908e-06 2.524013036166
