9
Coordinates from XML
N -0.437498339229 -0.088873542274 -1.084384493258
C 0.50095031651 0.10175909686 -2.207039835489
H -1.110876195476 -0.840610121126 -1.282354487787
H -0.975791454258 0.767162240955 -0.89643963394
H 0.059228031516 -0.338319580907 -0.218960500976
H -0.084216058164 0.363074724241 -3.090714541949
H 1.038836617147 -0.836505372186 -2.35569757566
H 1.185448345084 0.908126475038 -1.936840501129
F 7.4069872e-05 1.5045788e-05 2.712161534378
