9
Coordinates from XML
N 0.011520637188 -0.074035045947 -0.693194631664
C -0.013183733591 0.0847632356 -2.160012445792
H 0.829668024673 -0.617863119825 -0.388853345583
H -0.828012052144 -0.562564123778 -0.35495771225
H 0.051620816253 0.837392832521 -0.218210107716
H -0.055533751133 -0.911955213559 -2.60312116735
H 0.899003147213 0.607041415636 -2.454803231177
H -0.899804755863 0.667119494397 -2.417961918955
F -1.948986e-06 1.2532569e-05 2.32287624803
