9
Coordinates from XML
N 0.035258390853 -0.070117469361 -2.283720784505
C -0.040378860394 0.080300318392 -0.817761987215
H -0.027944567069 0.840460911438 -2.75763020468
H -0.729664029564 -0.658163902745 -2.640056430949
H 0.921014077407 -0.507372560722 -2.570363329877
H -0.997722439425 0.547260471846 -0.578956592017
H 0.79335560579 0.710978909867 -0.503290423872
H 0.031965646048 -0.915273114628 -0.375751363077
F -5.970668e-06 1.1873697e-05 2.699809138415
