9
Coordinates from XML
N -0.421974813965 -0.013489274432 -1.979665583261
C 0.483175123502 0.015438340437 -0.81465550442
H -1.388427087451 -0.22441336851 -1.698207292191
H -0.134524616036 -0.729432756077 -2.65986946799
H -0.43250300682 0.891357154543 -2.468604431305
H 0.450059071665 -0.967762122185 -0.341573368411
H 0.126694218624 0.790877176445 -0.133937511366
H 1.48733713086 0.24293392016 -1.177530144185
F 7.1441644e-05 2.282369e-06 2.423537685782
