9
Coordinates from XML
N -0.654760915246 -0.294368786126 -0.943248050129
C -0.284760915246 0.835631213874 -1.778248050129
H -0.135760915246 -0.199368786126 -0.008248050129
H -0.328760915246 -1.215368786126 -1.232248050129
H -1.616760915246 -0.329368786126 -0.606248050129
H 0.795239084754 0.806631213874 -1.935248050129
H -0.577760915246 1.752631213874 -1.264248050129
H -0.814760915246 0.739631213874 -2.728248050129
F 0.804558243985 -0.393320435912 2.230854478205
