9
Coordinates from XML
N -0.663632996086 -0.292538817334 -0.964374386272
C -0.293632996086 0.837461182666 -1.799374386272
H -0.144632996086 -0.197538817334 -0.029374386272
H -0.337632996086 -1.213538817334 -1.253374386272
H -1.625632996086 -0.327538817334 -0.627374386272
H 0.786367003914 0.808461182666 -1.956374386272
H -0.586632996086 1.754461182666 -1.285374386272
H -0.823632996086 0.741461182666 -2.749374386272
F 0.819525312699 -0.396407566108 2.266494293762
