9
Coordinates from XML
N -0.665407412254 -0.292172823576 -0.9685996535
C -0.295407412254 0.837827176424 -1.8035996535
H -0.146407412254 -0.197172823576 -0.0335996535
H -0.339407412254 -1.213172823576 -1.2575996535
H -1.627407412254 -0.327172823576 -0.6315996535
H 0.784592587746 0.808827176424 -1.9605996535
H -0.588407412254 1.754827176424 -1.2895996535
H -0.825407412254 0.741827176424 -2.7535996535
F 0.822518726442 -0.397024992147 2.273622256874
