9
Coordinates from XML
N -0.670730660757 -0.291074842301 -0.981275455186
C -0.300730660757 0.838925157699 -1.816275455186
H -0.151730660757 -0.196074842301 -0.046275455186
H -0.344730660757 -1.212074842301 -1.270275455186
H -1.632730660757 -0.326074842301 -0.644275455186
H 0.779269339243 0.809925157699 -1.973275455186
H -0.593730660757 1.755925157699 -1.302275455186
H -0.830730660757 0.742925157699 -2.766275455186
F 0.83149896767 -0.398877270264 2.295006146208
