9
Coordinates from XML
N -0.672505076925 -0.290708848542 -0.985500722415
C -0.302505076925 0.839291151458 -1.820500722415
H -0.153505076925 -0.195708848542 -0.050500722415
H -0.346505076925 -1.211708848542 -1.274500722415
H -1.634505076925 -0.325708848542 -0.648500722415
H 0.777494923075 0.810291151458 -1.977500722415
H -0.595505076925 1.756291151458 -1.306500722415
H -0.832505076925 0.743291151458 -2.770500722415
F 0.834492381413 -0.399494696303 2.302134109319
