9
Coordinates from XML
N -0.674279493093 -0.290342854784 -0.989725989643
C -0.304279493093 0.839657145216 -1.824725989643
H -0.155279493093 -0.195342854784 -0.054725989643
H -0.348279493093 -1.211342854784 -1.278725989643
H -1.636279493093 -0.325342854784 -0.652725989643
H 0.775720506907 0.810657145216 -1.981725989643
H -0.597279493093 1.756657145216 -1.310725989643
H -0.834279493093 0.743657145216 -2.774725989643
F 0.837485795156 -0.400112122342 2.309262072431
