9
Coordinates from XML
N -0.677828325429 -0.289610867267 -0.998176524101
C -0.307828325429 0.840389132733 -1.833176524101
H -0.158828325429 -0.194610867267 -0.063176524101
H -0.351828325429 -1.210610867267 -1.287176524101
H -1.639828325429 -0.324610867267 -0.661176524101
H 0.772171674571 0.811389132733 -1.990176524101
H -0.600828325429 1.757389132733 -1.319176524101
H -0.837828325429 0.744389132733 -2.783176524101
F 0.843472622642 -0.40134697442 2.323517998654
