9
Coordinates from XML
N -0.684925990101 -0.288146892234 -1.015077593015
C -0.314925990101 0.841853107766 -1.850077593015
H -0.165925990101 -0.193146892234 -0.080077593015
H -0.358925990101 -1.209146892234 -1.304077593015
H -1.646925990101 -0.323146892234 -0.678077593015
H 0.765074009899 0.812853107766 -2.007077593015
H -0.607925990101 1.758853107766 -1.336077593015
H -0.844925990101 0.745853107766 -2.800077593015
F 0.855446277613 -0.403816678576 2.352029851099
