9
Coordinates from XML
N -0.692023654773 -0.2866829172 -1.03197866193
C -0.322023654773 0.8433170828 -1.86697866193
H -0.173023654773 -0.1916829172 -0.09697866193
H -0.366023654773 -1.2076829172 -1.32097866193
H -1.654023654773 -0.3216829172 -0.69497866193
H 0.757976345227 0.8143170828 -2.02397866193
H -0.615023654773 1.7603170828 -1.35297866193
H -0.852023654773 0.7473170828 -2.81697866193
F 0.867419932584 -0.406286382732 2.380541703545
