9
Coordinates from XML
N -0.69379807094 -0.286316923442 -1.036203929158
C -0.32379807094 0.843683076558 -1.871203929158
H -0.17479807094 -0.191316923442 -0.101203929158
H -0.36779807094 -1.207316923442 -1.325203929158
H -1.65579807094 -0.321316923442 -0.699203929158
H 0.75620192906 0.814683076558 -2.028203929158
H -0.61679807094 1.760683076558 -1.357203929158
H -0.85379807094 0.747683076558 -2.821203929158
F 0.870413346327 -0.406903808771 2.387669666656
