9
Coordinates from XML
N -0.70267015178 -0.28448695465 -1.057330265301
C -0.33267015178 0.84551304535 -1.892330265301
H -0.18367015178 -0.18948695465 -0.122330265301
H -0.37667015178 -1.20548695465 -1.346330265301
H -1.66467015178 -0.31948695465 -0.720330265301
H 0.74732984822 0.81651304535 -2.049330265301
H -0.62567015178 1.76251304535 -1.378330265301
H -0.86267015178 0.74951304535 -2.842330265301
F 0.885380415042 -0.409990938966 2.423309482213
