9
Coordinates from XML
N -0.704444567948 -0.284120960891 -1.06155553253
C -0.334444567948 0.845879039109 -1.89655553253
H -0.185444567948 -0.189120960891 -0.12655553253
H -0.378444567948 -1.205120960891 -1.35055553253
H -1.666444567948 -0.319120960891 -0.72455553253
H 0.745555432052 0.816879039109 -2.05355553253
H -0.627444567948 1.762879039109 -1.38255553253
H -0.864444567948 0.749879039109 -2.84655553253
F 0.888373828784 -0.410608365006 2.430437445325
