9
Coordinates from XML
N -0.659024122922 -0.293489450473 -0.953399666197
C -0.289024122922 0.836510549527 -1.788399666197
H -0.140024122922 -0.198489450473 -0.018399666197
H -0.333024122922 -1.214489450473 -1.242399666197
H -1.621024122922 -0.328489450473 -0.616399666197
H 0.790975877078 0.807510549527 -1.945399666197
H -0.582024122922 1.753510549527 -1.274399666197
H -0.819024122922 0.740510549527 -2.738399666197
F 0.811750212068 -0.39480386211 2.247980103863
