9
Coordinates from XML
N -0.660656432167 -0.293152767903 -0.957286546224
C -0.290656432167 0.836847232097 -1.792286546224
H -0.141656432167 -0.198152767903 -0.022286546224
H -0.334656432167 -1.214152767903 -1.246286546224
H -1.622656432167 -0.328152767903 -0.620286546224
H 0.789343567833 0.807847232097 -1.949286546224
H -0.583656432167 1.753847232097 -1.278286546224
H -0.820656432167 0.740847232097 -2.742286546224
F 0.814503893542 -0.395371840609 2.254537212786
