9
Coordinates from XML
N 0.041968064433 -0.039303954696 -0.612786627571
C -0.045964897337 0.043082345894 -2.135766234676
H 0.566064966124 0.752518723173 -0.232401032425
H 0.512732260711 -0.898372961222 -0.31843506762
H -0.889938669378 -0.03114584611 -0.190777238248
H 0.961361657982 0.031397402024 -2.538999330586
H -0.550256170934 0.965980916079 -2.401409553895
H -0.607831147806 -0.813160434884 -2.494140418709
F -0.001482992026 0.001374523782 2.234410562034
