9
Coordinates from XML
N 0.041968064433 -0.039303954696 -0.642559773025
C -0.045964897337 0.043082345894 -2.16553938013
H 0.566064966124 0.752518723173 -0.262174177879
H 0.512732260711 -0.898372961222 -0.348208213075
H -0.889938669378 -0.03114584611 -0.220550383702
H 0.961361657982 0.031397402024 -2.56877247604
H -0.550256170934 0.965980916079 -2.431182699349
H -0.607831147806 -0.813160434884 -2.523913564163
F -0.001482992026 0.001374523782 2.28463741658
