9
Coordinates from XML
N 0.0419681 -0.039304 -0.702106
C -0.0459649 0.0430823 -2.22509
H 0.566065 0.752519 -0.32172
H 0.512732 -0.898373 -0.407755
H -0.889939 -0.0311458 -0.280097
H 0.961362 0.0313974 -2.62832
H -0.550256 0.965981 -2.49073
H -0.607831 -0.81316 -2.58346
F -0.00148299 0.00137452 2.38509
