9
Coordinates from XML
N 0.0419681 -0.039304 -0.813755
C -0.0459649 0.0430823 -2.33673
H 0.566065 0.752519 -0.43337
H 0.512732 -0.898373 -0.519404
H -0.889939 -0.0311458 -0.391746
H 0.961362 0.0313974 -2.73997
H -0.550256 0.965981 -2.60238
H -0.607831 -0.81316 -2.69511
F -0.00148299 0.00137452 2.57344
