9
Coordinates from XML
N 0.041968064433 -0.039303954696 -0.932847941205
C -0.045964897337 0.043082345894 -2.455827548309
H 0.566064966124 0.752518723173 -0.552462346058
H 0.512732260711 -0.898372961222 -0.638496381254
H -0.889938669378 -0.03114584611 -0.510838551882
H 0.961361657982 0.031397402024 -2.859060644219
H -0.550256170934 0.965980916079 -2.721470867529
H -0.607831147806 -0.813160434884 -2.814201732343
F -0.001482992026 0.001374523782 2.7743492484
