9
Coordinates from XML
N 0.0419681 -0.039304 -0.984951
C -0.0459649 0.0430823 -2.50793
H 0.566065 0.752519 -0.604565
H 0.512732 -0.898373 -0.690599
H -0.889939 -0.0311458 -0.562942
H 0.961362 0.0313974 -2.91116
H -0.550256 0.965981 -2.77357
H -0.607831 -0.81316 -2.8663
F -0.00148299 0.00137452 2.86225
