9
Coordinates from XML
N 0.041968064433 -0.039303954696 -0.98495094575
C -0.045964897337 0.043082345894 -2.507930552854
H 0.566064966124 0.752518723173 -0.604565350604
H 0.512732260711 -0.898372961222 -0.690599385799
H -0.889938669378 -0.03114584611 -0.562941556427
H 0.961361657982 0.031397402024 -2.911163648764
H -0.550256170934 0.965980916079 -2.773573872074
H -0.607831147806 -0.813160434884 -2.866304736888
F -0.001482992026 0.001374523782 2.862246243855
