9
Coordinates from XML
N 0.0419681 -0.039304 -1.01472
C -0.0459649 0.0430823 -2.5377
H 0.566065 0.752519 -0.634338
H 0.512732 -0.898373 -0.720373
H -0.889939 -0.0311458 -0.592715
H 0.961362 0.0313974 -2.94094
H -0.550256 0.965981 -2.80335
H -0.607831 -0.81316 -2.89608
F -0.00148299 0.00137452 2.91247
