9
Coordinates from XML
N 0.041968064433 -0.039303954696 -1.014724091204
C -0.045964897337 0.043082345894 -2.537703698309
H 0.566064966124 0.752518723173 -0.634338496058
H 0.512732260711 -0.898372961222 -0.720372531253
H -0.889938669378 -0.03114584611 -0.592714701881
H 0.961361657982 0.031397402024 -2.940936794219
H -0.550256170934 0.965980916079 -2.803347017528
H -0.607831147806 -0.813160434884 -2.896077882342
F -0.001482992026 0.001374523782 2.912473098401
