9
Coordinates from XML
N 0.041968064433 -0.039303954696 -1.044497236658
C -0.045964897337 0.043082345894 -2.567476843763
H 0.566064966124 0.752518723173 -0.664111641512
H 0.512732260711 -0.898372961222 -0.750145676708
H -0.889938669378 -0.03114584611 -0.622487847335
H 0.961361657982 0.031397402024 -2.970709939673
H -0.550256170934 0.965980916079 -2.833120162982
H -0.607831147806 -0.813160434884 -2.925851027796
F -0.001482992026 0.001374523782 2.962699952947
