9
Coordinates from XML
N 0.041968064433 -0.039303954696 -1.074270382113
C -0.045964897337 0.043082345894 -2.597249989217
H 0.566064966124 0.752518723173 -0.693884786966
H 0.512732260711 -0.898372961222 -0.779918822162
H -0.889938669378 -0.03114584611 -0.65226099279
H 0.961361657982 0.031397402024 -3.000483085127
H -0.550256170934 0.965980916079 -2.862893308436
H -0.607831147806 -0.813160434884 -2.95562417325
F -0.001482992026 0.001374523782 3.012926807492
