9
Coordinates from XML
N 0.0419681 -0.039304 -1.18592
C -0.0459649 0.0430823 -2.7089
H 0.566065 0.752519 -0.805534
H 0.512732 -0.898373 -0.891568
H -0.889939 -0.0311458 -0.76391
H 0.961362 0.0313974 -3.11213
H -0.550256 0.965981 -2.97454
H -0.607831 -0.81316 -3.06727
F -0.00148299 0.00137452 3.20128
