9
Coordinates from XML
N 0.041968064433 -0.039303954696 -1.215692823021
C -0.045964897337 0.043082345894 -2.738672430125
H 0.566064966124 0.752518723173 -0.835307227874
H 0.512732260711 -0.898372961222 -0.92134126307
H -0.889938669378 -0.03114584611 -0.793683433698
H 0.961361657982 0.031397402024 -3.141905526035
H -0.550256170934 0.965980916079 -3.004315749344
H -0.607831147806 -0.813160434884 -3.097046614158
F -0.001482992026 0.001374523782 3.251504366584
