9
Coordinates from XML
N 0.0419681 -0.039304 -1.23802
C -0.0459649 0.0430823 -2.761
H 0.566065 0.752519 -0.857637
H 0.512732 -0.898373 -0.943671
H -0.889939 -0.0311458 -0.816013
H 0.961362 0.0313974 -3.16424
H -0.550256 0.965981 -3.02665
H -0.607831 -0.81316 -3.11938
F -0.00148299 0.00137452 3.28917
