9
Coordinates from XML
N 0.041968064433 -0.039303954696 -1.267795827566
C -0.045964897337 0.043082345894 -2.79077543467
H 0.566064966124 0.752518723173 -0.887410232419
H 0.512732260711 -0.898372961222 -0.973444267615
H -0.889938669378 -0.03114584611 -0.845786438243
H 0.961361657982 0.031397402024 -3.19400853058
H -0.550256170934 0.965980916079 -3.056418753889
H -0.607831147806 -0.813160434884 -3.149149618703
F -0.001482992026 0.001374523782 3.339401362039
