9
Coordinates from XML
N -0.647785446755 0.067917459938 -1.145740970383
C 0.709266606369 -0.074358196462 -1.832875567572
H -0.729402674963 -0.579167218965 -0.3577219586
H -1.411250339776 -0.131498836427 -1.796598731485
H -0.77975948184 1.017170194728 -0.787815364299
H 0.805490598447 -1.092556998796 -2.195439215604
H 1.486014889776 0.145333095119 -1.108295914842
H 0.751232935419 0.627871934318 -2.658944032944
F 0.022975885834 -0.002411070818 2.474571030534
