9
Coordinates from XML
N -0.353626029906 0.118923229957 -1.891975124495
C 0.387221048996 -0.130202706745 -0.579318099492
H 0.036373446822 0.925410317853 -2.38576951668
H -1.345736623341 0.302774163124 -1.724115861765
H -0.284718334114 -0.692272950639 -2.511508114723
H 0.287776575778 0.752454409868 0.043953484844
H 1.431196431024 -0.319877597508 -0.804610509606
H -0.05825171623 -0.990977324905 -0.091569689956
F 0.012529349878 -0.004221057374 2.156885821016
