9
Coordinates from XML
N -0.353626029906 0.118923229957 -2.003624419949
C 0.387221048996 -0.130202706745 -0.690967394945
H 0.036373446822 0.925410317853 -2.497418812133
H -1.345736623341 0.302774163124 -1.835765157218
H -0.284718334114 -0.692272950639 -2.623157410176
H 0.287776575778 0.752454409868 -0.06769581061
H 1.431196431024 -0.319877597508 -0.91625980506
H -0.05825171623 -0.990977324905 -0.203218985409
F 0.012529349878 -0.004221057374 2.345236525562
