9
Coordinates from XML
N -0.353626029906 0.118923229957 -2.040840851767
C 0.387221048996 -0.130202706745 -0.728183826763
H 0.036373446822 0.925410317853 -2.534635243951
H -1.345736623341 0.302774163124 -1.872981589036
H -0.284718334114 -0.692272950639 -2.660373841994
H 0.287776575778 0.752454409868 -0.104912242428
H 1.431196431024 -0.319877597508 -0.953476236878
H -0.05825171623 -0.990977324905 -0.240435417227
F 0.012529349878 -0.004221057374 2.408020093744
