9
Coordinates from XML
N -0.353626029906 0.118923229957 -2.078057283585
C 0.387221048996 -0.130202706745 -0.765400258581
H 0.036373446822 0.925410317853 -2.571851675769
H -1.345736623341 0.302774163124 -1.910198020854
H -0.284718334114 -0.692272950639 -2.697590273812
H 0.287776575778 0.752454409868 -0.142128674246
H 1.431196431024 -0.319877597508 -0.990692668696
H -0.05825171623 -0.990977324905 -0.277651849045
F 0.012529349878 -0.004221057374 2.470803661927
