9
Coordinates from XML
N -0.353626029906 0.118923229957 -2.264139442674
C 0.387221048996 -0.130202706745 -0.95148241767
H 0.036373446822 0.925410317853 -2.757933834859
H -1.345736623341 0.302774163124 -2.096280179944
H -0.284718334114 -0.692272950639 -2.883672432901
H 0.287776575778 0.752454409868 -0.328210833335
H 1.431196431024 -0.319877597508 -1.176774827785
H -0.05825171623 -0.990977324905 -0.463734008134
F 0.012529349878 -0.004221057374 2.784721502837
