9
Coordinates from XML
N 0.549618029655 -0.13096802194 -1.763671273449
C -0.601793486232 0.143403031275 -0.797773432999
H 0.261426394675 -0.77512919786 -2.504181825372
H 1.345906675026 -0.548607006863 -1.276061389583
H 0.870531427886 0.733589089345 -2.206575588282
H -0.908585386519 -0.797642782074 -0.353080546054
H -1.420870140763 0.584140870666 -1.355878641228
H -0.25214904477 0.828359969467 -0.03235838467
F -0.01948944138 0.004643244002 2.213802364795
