9
Coordinates from XML
N -0.615280225834 0.02300137345 -1.514760306707
C 0.673680813932 -0.025194233506 -0.696076476782
H -0.500669968514 0.609581256196 -2.344906346039
H -1.386311355163 0.40660037525 -0.962832656792
H -0.886915648543 -0.912815527045 -1.82632019792
H 0.922717044665 0.98499119285 -0.387942387847
H 1.460886668277 -0.436905637519 -1.318505987019
H 0.506461909144 -0.655753503946 0.170935797165
F 0.021821154746 -0.000811838034 1.909948929757
