9
Coordinates from XML
N -0.615280225834 0.02300137345 -1.537090165798
C 0.673680813932 -0.025194233506 -0.718406335873
H -0.500669968514 0.609581256196 -2.36723620513
H -1.386311355163 0.40660037525 -0.985162515883
H -0.886915648543 -0.912815527045 -1.84865005701
H 0.922717044665 0.98499119285 -0.410272246938
H 1.460886668277 -0.436905637519 -1.34083584611
H 0.506461909144 -0.655753503946 0.148605938074
F 0.021821154746 -0.000811838034 1.947619070667
