9
Coordinates from XML
N 0.00288695 0.0587473 -1.88805
C -0.00311108 -0.0643356 -0.365291
H 0.810523 0.598178 -2.20913
H -0.841985 0.529199 -2.22141
H 0.0446864 -0.862866 -2.3302
H -0.0480588 0.933087 0.0596424
H 0.90748 -0.567101 -0.0576082
H -0.873402 -0.641537 -0.070828
F -0.000122652 -0.00207858 1.98464
