9
Coordinates from XML
N -0.647785446755 0.067917459938 -1.383926134017
C 0.709266606369 -0.074358196462 -2.071060731206
H -0.729402674963 -0.579167218965 -0.595907122234
H -1.411250339776 -0.131498836427 -2.034783895119
H -0.77975948184 1.017170194728 -1.026000527933
H 0.805490598447 -1.092556998796 -2.433624379239
H 1.486014889776 0.145333095119 -1.346481078477
H 0.751232935419 0.627871934318 -2.897129196578
F 0.022975885834 -0.002411070818 2.8763858669
