9
Coordinates from XML
N -0.601287013042 -0.305398393947 -0.815915166981
C -0.231287013042 0.824601606053 -1.650915166981
H -0.082287013042 -0.210398393947 0.119084833019
H -0.275287013042 -1.226398393947 -1.104915166981
H -1.563287013042 -0.340398393947 -0.478915166981
H 0.848712986958 0.795601606053 -1.807915166981
H -0.524287013042 1.741601606053 -1.136915166981
H -0.761287013042 0.728601606053 -2.600915166981
F 0.714348564524 -0.374713651199 2.016045793964
