9
Coordinates from XML
N -0.609495196676 -0.303705361596 -0.835460620827
C -0.239495196676 0.826294638404 -1.670460620827
H -0.090495196676 -0.208705361596 0.099539379173
H -0.283495196676 -1.224705361596 -1.124460620827
H -1.571495196676 -0.338705361596 -0.498460620827
H 0.840504803324 0.797294638404 -1.827460620827
H -0.532495196676 1.743294638404 -1.156460620827
H -0.769495196676 0.730294638404 -2.620460620827
F 0.728195648504 -0.377569771651 2.049018684547
