9
Coordinates from XML
N -0.61770338031 -0.302012329244 -0.855006074674
C -0.24770338031 0.827987670756 -1.690006074674
H -0.09870338031 -0.207012329244 0.079993925326
H -0.29170338031 -1.223012329244 -1.144006074674
H -1.57970338031 -0.337012329244 -0.518006074674
H 0.83229661969 0.798987670756 -1.847006074674
H -0.54070338031 1.744987670756 -1.176006074674
H -0.77770338031 0.731987670756 -2.640006074674
F 0.742042732485 -0.380425892104 2.081991575131
