9
Coordinates from XML
N -0.634119747578 -0.29862626454 -0.894096982367
C -0.264119747578 0.83137373546 -1.729096982367
H -0.115119747578 -0.20362626454 0.040903017633
H -0.308119747578 -1.21962626454 -1.183096982367
H -1.596119747578 -0.33362626454 -0.557096982367
H 0.815880252422 0.80237373546 -1.886096982367
H -0.557119747578 1.74837373546 -1.215096982367
H -0.794119747578 0.73537373546 -2.679096982367
F 0.769736900446 -0.386138133009 2.147937356297
