9
Coordinates from XML
N -0.642327931212 -0.296933232189 -0.913642436214
C -0.272327931212 0.833066767811 -1.748642436214
H -0.123327931212 -0.201933232189 0.021357563786
H -0.316327931212 -1.217933232189 -1.202642436214
H -1.604327931212 -0.331933232189 -0.576642436214
H 0.807672068788 0.804066767811 -1.905642436214
H -0.565327931212 1.750066767811 -1.234642436214
H -0.802327931212 0.737066767811 -2.698642436214
F 0.783583984426 -0.388994253462 2.180910246881
