9
Coordinates from XML
N -0.691577033016 -0.286775038078 -1.030915159294
C -0.321577033016 0.843224961922 -1.865915159294
H -0.172577033016 -0.191775038078 -0.095915159294
H -0.365577033016 -1.207775038078 -1.319915159294
H -1.653577033016 -0.321775038078 -0.693915159294
H 0.758422966984 0.814224961922 -2.022915159294
H -0.614577033016 1.760224961922 -1.351915159294
H -0.851577033016 0.747224961922 -2.815915159294
F 0.866666488309 -0.406130976178 2.378747590381
