9
Coordinates from XML
N -0.707993400284 -0.283388973375 -1.070006066987
C -0.337993400284 0.846611026625 -1.905006066987
H -0.188993400284 -0.188388973375 -0.135006066987
H -0.381993400284 -1.204388973375 -1.359006066987
H -1.669993400284 -0.318388973375 -0.733006066987
H 0.742006599716 0.817611026625 -2.062006066987
H -0.630993400284 1.763611026625 -1.391006066987
H -0.867993400284 0.750611026625 -2.855006066987
F 0.89436065627 -0.411843217084 2.444693371547
