9
Coordinates from XML
N 0.0439585 -0.0749798 -0.414746
C -0.0481533 0.0821388 -1.93159
H 0.405471 0.777027 0.0208538
H 0.667547 -0.845693 -0.162953
H -0.875219 -0.269253 -0.00980125
H 0.945615 0.286092 -2.31664
H -0.716979 0.907302 -2.15158
H -0.434641 -0.841497 -2.34968
F -0.0015499 0.00264208 1.89548
