9
Coordinates from XML
N 0.0439585 -0.0749798 -0.429632
C -0.0481533 0.0821388 -1.94648
H 0.405471 0.777027 0.00596719
H 0.667547 -0.845693 -0.17784
H -0.875219 -0.269253 -0.0246878
H 0.945615 0.286092 -2.33153
H -0.716979 0.907302 -2.16647
H -0.434641 -0.841497 -2.36457
F -0.0015499 0.00264208 1.9206
