9
Coordinates from XML
N 0.0439585 -0.0749798 -0.474292
C -0.0481533 0.0821388 -1.99114
H 0.405471 0.777027 -0.0386925
H 0.667547 -0.845693 -0.2225
H -0.875219 -0.269253 -0.0693475
H 0.945615 0.286092 -2.37619
H -0.716979 0.907302 -2.21113
H -0.434641 -0.841497 -2.40923
F -0.0015499 0.00264208 1.99594
