9
Coordinates from XML
N 0.0439585 -0.0749798 -0.511508
C -0.0481533 0.0821388 -2.02835
H 0.405471 0.777027 -0.075909
H 0.667547 -0.845693 -0.259716
H -0.875219 -0.269253 -0.106564
H 0.945615 0.286092 -2.41341
H -0.716979 0.907302 -2.24834
H -0.434641 -0.841497 -2.44644
F -0.0015499 0.00264208 2.05872
