9
Coordinates from XML
N 0.0439585 -0.0749798 -0.533838
C -0.0481533 0.0821388 -2.05068
H 0.405471 0.777027 -0.0982388
H 0.667547 -0.845693 -0.282046
H -0.875219 -0.269253 -0.128894
H 0.945615 0.286092 -2.43574
H -0.716979 0.907302 -2.27067
H -0.434641 -0.841497 -2.46877
F -0.0015499 0.00264208 2.09639
