8
Coordinates from XML
C 0.914072433906 0.938938417065 -0.487784133565
C -0.0686743937 -0.072995011107 -1.175128408169
O 0.064378192014 -0.230823088196 -2.449572322423
O -0.91399221241 -0.641399816532 -0.3780651369
H 1.610357159272 1.370310695847 -1.217299308873
H 0.332144238318 1.739890608348 -0.007866820411
H 1.474153672198 0.420612343856 0.304548453726
F 7.0359993e-05 7.1987113e-05 3.479797286648
