8
Coordinates from XML
C -0.88527997671 0.321035515343 -2.180761266297
C 0.073428068852 -0.0276239619 -0.988470112947
O 1.122122864462 -0.7235107026 -1.276221486257
O -0.300129293901 0.425312343541 0.164031381981
H -0.500716721446 -0.079637073037 -3.126625649972
H -1.883131017554 -0.095168236856 -1.976915241204
H -0.993936279946 1.413370875445 -2.252462796108
F -6.7310757e-05 2.4279435e-05 3.32837062258
