8
Coordinates from XML
C 0.441811017426 -1.259390507777 -0.565047006473
C -0.03582988659 0.100914856999 -1.1844590046
O -0.546254347292 0.959438095782 -0.366397453462
O 0.135722187977 0.210312695611 -2.461783589224
H 0.280994277011 -1.277184026639 0.51980700185
H -0.109014650092 -2.086069649415 -1.037993246325
H 1.508880948764 -1.405955980546 -0.788707830856
F 3.3681932e-05 -9.6184362e-05 3.555441287583
