8
Coordinates from XML
C 0.141341940105 -1.376019369583 -1.274516953254
C -0.017016746401 0.106935881157 -0.786655299951
O -1.216800175732 0.500486209119 -0.517475350614
O 1.086006818474 0.778039510795 -0.709746071081
H -0.828107920759 -1.888405484623 -1.301243140219
H 0.594396275047 -1.381155654185 -2.277114007496
H 0.828987958126 -1.908821564178 -0.601160720735
F 1.0100268e-05 -0.000105490619 2.556824971666
