8
Coordinates from XML
C 1.342010290502 -0.347158891801 -0.565917236787
C -0.104112761008 0.024650988378 -1.048336426852
O -0.378934200295 -0.216840323859 -2.286470145674
O -0.867887517745 0.539781251322 -0.140457013584
H 1.927637360729 -0.791470153406 -1.379990507514
H 1.844500910248 0.558823463639 -0.195532823367
H 1.274453424823 -1.052106906445 0.27588333763
F 0.000102910412 -2.6891015e-05 3.131807756281
