8
Coordinates from XML
C 1.311198757698 0.612963426742 -0.956705236007
C -0.10164590654 -0.05173073324 -1.112571750913
O -0.348866975835 -1.065845623712 -0.35278710058
O -0.869324770895 0.496590554537 -1.997427119016
H 1.901247451207 0.108828602116 -0.181606874137
H 1.84166954069 0.566447484092 -1.919473370334
H 1.186835867512 1.67583706379 -0.701798696755
F 0.000100557446 4.6489171e-05 3.434373437787
