8
Coordinates from XML
C -0.359429969535 -1.324946617239 -0.340984976959
C 0.026376817876 0.102341747733 -0.866573968524
O -0.0606580499 0.29064859396 -2.140852370804
O 0.394936358661 0.940364123254 0.047120979962
H -0.67558539437 -1.976718610266 -1.164590385598
H 0.506045508948 -1.767381258285 0.174465553695
H -1.16956975934 -1.233702236814 0.397589206555
F -2.7737436e-05 -0.000101656232 2.556895650559
