8
Coordinates from XML
C 0.957909669083 0.310980975954 0.017586677968
C -0.072229663101 -0.020542466531 -1.118700216009
O 0.023476903354 0.672169668387 -2.20396982967
O -0.913803008512 -0.961300440167 -0.836415191253
H 1.648135885383 1.104240226414 -0.294526097446
H 0.412925242148 0.623915867508 0.920664300906
H 1.522030789834 -0.598100368015 0.27348179654
F 7.3702863e-05 2.4288728e-05 3.20750124099
