8
Coordinates from XML
C -0.069502630952 -0.057402315078 -2.17711404693
C 0.022007226135 0.00822539707 -0.622664253697
O 0.738503911466 -0.890775129576 -0.055933533696
O -0.639111554432 0.964093540233 -0.078314491636
H 0.526786557013 -0.88177557443 -2.570614639963
H -1.115272895327 -0.181230266089 -2.477583196053
H 0.276633751747 0.888868134187 -2.605506788884
F -0.037136519193 -0.021428030526 2.28746700702
