8
Coordinates from XML
C -0.069502630952 -0.057402315078 -2.201467318729
C 0.022007226135 0.00822539707 -0.647017525497
O 0.738503911466 -0.890775129576 -0.080286805496
O -0.639111554432 0.964093540233 -0.102667763436
H 0.526786557013 -0.88177557443 -2.594967911762
H -1.115272895327 -0.181230266089 -2.501936467852
H 0.276633751747 0.888868134187 -2.629860060683
F -0.037136519193 -0.021428030526 2.363113735221
