8
Coordinates from XML
C -1.243464249037 0.051737426114 -0.896629265942
C 0.300456079743 -0.020188205707 -0.696299707227
O 0.792659825822 -1.183091862365 -0.476882949286
O 0.912254995995 1.105429529093 -0.772230029018
H -1.693617661557 -0.939972496994 -0.834435080191
H -1.68164824279 0.705052748866 -0.134773378287
H -1.466834000554 0.500582448506 -1.869975350292
F -0.58288475034 0.031364226787 2.208396319965
