8
Coordinates from XML
C -1.243464249037 0.051737426114 -1.023266279301
C 0.300456079743 -0.020188205707 -0.822936720586
O 0.792659825822 -1.183091862365 -0.603519962645
O 0.912254995995 1.105429529093 -0.898867042377
H -1.693617661557 -0.939972496994 -0.961072093549
H -1.68164824279 0.705052748866 -0.261410391646
H -1.466834000554 0.500582448506 -1.99661236365
F -0.58288475034 0.031364226787 2.601759306607
