8
Coordinates from XML
C -1.243464249037 0.051737426114 -1.183997873179
C 0.300456079743 -0.020188205707 -0.983668314464
O 0.792659825822 -1.183091862365 -0.764251556523
O 0.912254995995 1.105429529093 -1.059598636255
H -1.693617661557 -0.939972496994 -1.121803687428
H -1.68164824279 0.705052748866 -0.422141985524
H -1.466834000554 0.500582448506 -2.157343957528
F -0.58288475034 0.031364226787 3.101027712728
