8
Coordinates from XML
C -1.243464249037 0.051737426114 -1.300893577817
C 0.300456079743 -0.020188205707 -1.100564019102
O 0.792659825822 -1.183091862365 -0.881147261162
O 0.912254995995 1.105429529093 -1.176494340894
H -1.693617661557 -0.939972496994 -1.238699392066
H -1.68164824279 0.705052748866 -0.539037690163
H -1.466834000554 0.500582448506 -2.274239662167
F -0.58288475034 0.031364226787 3.46413200809
