8
Coordinates from XML
C -1.243464249037 0.051737426114 -1.417789282456
C 0.300456079743 -0.020188205707 -1.217459723741
O 0.792659825822 -1.183091862365 -0.9980429658
O 0.912254995995 1.105429529093 -1.293390045533
H -1.693617661557 -0.939972496994 -1.355595096705
H -1.68164824279 0.705052748866 -0.655933394801
H -1.466834000554 0.500582448506 -2.391135366806
F -0.58288475034 0.031364226787 3.827236303451
