8
Coordinates from XML
C -0.430077210272 1.177412040093 -0.844069208341
C 0.101268426318 -0.285469240021 -0.762549977504
O -0.013392347398 -0.870586458953 0.372017738884
O 0.601341864562 -0.744477330565 -1.851731661966
H -0.853077139864 1.494753527374 0.110058782628
H 0.387323050724 1.848755397408 -1.127627715162
H -1.189811228995 1.248813709833 -1.629221755487
F -0.199489226418 0.552743092167 2.400982314722
