8
Coordinates from XML
C -0.430077210272 1.177412040093 -1.121696506858
C 0.101268426318 -0.285469240021 -1.040177276021
O -0.013392347398 -0.870586458953 0.094390440367
O 0.601341864562 -0.744477330565 -2.129358960482
H -0.853077139864 1.494753527374 -0.167568515888
H 0.387323050724 1.848755397408 -1.405255013679
H -1.189811228995 1.248813709833 -1.906849054004
F -0.199489226418 0.552743092167 3.263355016205
