8
Coordinates from XML
C -0.430077210272 1.177412040093 -1.423677077174
C 0.101268426318 -0.285469240021 -1.342157846337
O -0.013392347398 -0.870586458953 -0.207590129949
O 0.601341864562 -0.744477330565 -2.431339530799
H -0.853077139864 1.494753527374 -0.469549086205
H 0.387323050724 1.848755397408 -1.707235583996
H -1.189811228995 1.248813709833 -2.208829624321
F -0.199489226418 0.552743092167 4.201374445888
