8
Coordinates from XML
C -0.430077210272 1.177412040093 -1.462642312054
C 0.101268426318 -0.285469240021 -1.381123081217
O -0.013392347398 -0.870586458953 -0.246555364829
O 0.601341864562 -0.744477330565 -2.470304765679
H -0.853077139864 1.494753527374 -0.508514321085
H 0.387323050724 1.848755397408 -1.746200818875
H -1.189811228995 1.248813709833 -2.2477948592
F -0.199489226418 0.552743092167 4.322409211009
