8
Coordinates from XML
C -0.079008717527 -0.48662539117 -2.284030868129
C 0.021226506818 0.110860291687 -0.848078581732
O 0.255937640628 -0.719904753149 0.099282637621
O -0.146356178408 1.381104589668 -0.774091558217
H 0.088343513531 -1.564522981632 -2.272859548897
H -1.06757785206 -0.270323665855 -2.702594061389
H 0.656831437677 -0.003293009086 -2.934943745828
F -0.038657664192 -0.221814988505 2.966097753347
