8
Coordinates from XML
C -0.079008717527 -0.48662539117 -2.615235364605
C 0.021226506818 0.110860291687 -1.179283078208
O 0.255937640628 -0.719904753149 -0.231921858855
O -0.146356178408 1.381104589668 -1.105296054693
H 0.088343513531 -1.564522981632 -2.604064045373
H -1.06757785206 -0.270323665855 -3.033798557865
H 0.656831437677 -0.003293009086 -3.266148242304
F -0.038657664192 -0.221814988505 3.994893256871
