8
Coordinates from XML
C -0.079008717527 -0.48662539117 -2.678553871284
C 0.021226506818 0.110860291687 -1.242601584887
O 0.255937640628 -0.719904753149 -0.295240365534
O -0.146356178408 1.381104589668 -1.168614561372
H 0.088343513531 -1.564522981632 -2.667382552053
H -1.06757785206 -0.270323665855 -3.097117064544
H 0.656831437677 -0.003293009086 -3.329466748983
F -0.038657664192 -0.221814988505 4.191574750192
