8
Coordinates from XML
C -0.079008717527 -0.48662539117 -2.746743032323
C 0.021226506818 0.110860291687 -1.310790745926
O 0.255937640628 -0.719904753149 -0.363429526574
O -0.146356178408 1.381104589668 -1.236803722412
H 0.088343513531 -1.564522981632 -2.735571713092
H -1.06757785206 -0.270323665855 -3.165306225584
H 0.656831437677 -0.003293009086 -3.397655910023
F -0.038657664192 -0.221814988505 4.403385589152
