8
Coordinates from XML
C -1.063157281541 0.662232946754 -0.638546459987
C 0.258351606372 -0.159199614148 -0.727191918329
O 0.971688493314 -0.206848157818 0.3365906055
O 0.487692960171 -0.69992241723 -1.868287885483
H -1.199882811283 1.078544895443 0.360445669126
H -1.041833002142 1.471157721337 -1.376405864652
H -1.91251782482 0.019718567042 -0.892555198658
F -0.499951122847 0.309383420197 2.253435563931
