8
Coordinates from XML
C -1.063157281541 0.662232946754 -0.667770386147
C 0.258351606372 -0.159199614148 -0.756415844489
O 0.971688493314 -0.206848157818 0.30736667934
O 0.487692960171 -0.69992241723 -1.897511811642
H -1.199882811283 1.078544895443 0.331221742967
H -1.041833002142 1.471157721337 -1.405629790811
H -1.91251782482 0.019718567042 -0.921779124818
F -0.499951122847 0.309383420197 2.344211637772
