8
Coordinates from XML
C -1.063157281541 0.662232946754 -0.716476929746
C 0.258351606372 -0.159199614148 -0.805122388088
O 0.971688493314 -0.206848157818 0.258660135741
O 0.487692960171 -0.69992241723 -1.946218355242
H -1.199882811283 1.078544895443 0.282515199367
H -1.041833002142 1.471157721337 -1.454336334411
H -1.91251782482 0.019718567042 -0.970485668417
F -0.499951122847 0.309383420197 2.495505094172
