8
Coordinates from XML
C -1.063157281541 0.662232946754 -0.770054127706
C 0.258351606372 -0.159199614148 -0.858699586047
O 0.971688493314 -0.206848157818 0.205082937782
O 0.487692960171 -0.69992241723 -1.999795553201
H -1.199882811283 1.078544895443 0.228938001408
H -1.041833002142 1.471157721337 -1.50791353237
H -1.91251782482 0.019718567042 -1.024062866376
F -0.499951122847 0.309383420197 2.661927896213
