8
Coordinates from XML
C -1.063157281541 0.662232946754 -0.794407399505
C 0.258351606372 -0.159199614148 -0.883052857847
O 0.971688493314 -0.206848157818 0.180729665982
O 0.487692960171 -0.69992241723 -2.024148825001
H -1.199882811283 1.078544895443 0.204584729608
H -1.041833002142 1.471157721337 -1.53226680417
H -1.91251782482 0.019718567042 -1.048416138176
F -0.499951122847 0.309383420197 2.737574624413
