8
Coordinates from XML
C -0.867262622231 -0.25411982905 0.071920126966
C 0.21534586488 0.059825265232 -1.004366336592
O 1.434042761333 0.043847118397 -0.607786295
O -0.239792176952 0.303833746795 -2.179265411573
H -0.409035414688 -0.465779399255 1.038989326013
H -1.549455565116 0.597514519774 0.164560514807
H -1.467425838007 -1.111317393645 -0.250221068193
F -0.411940427254 -0.118027995964 2.88483297949
