8
Coordinates from XML
C -0.867262622231 -0.25411982905 0.003730965927
C 0.21534586488 0.059825265232 -1.072555497631
O 1.434042761333 0.043847118397 -0.67597545604
O -0.239792176952 0.303833746795 -2.247454572613
H -0.409035414688 -0.465779399255 0.970800164973
H -1.549455565116 0.597514519774 0.096371353768
H -1.467425838007 -1.111317393645 -0.318410229232
F -0.411940427254 -0.118027995964 3.09664381845
