8
Coordinates from XML
C -0.867262622231 -0.25411982905 -0.108294084352
C 0.21534586488 0.059825265232 -1.18458054791
O 1.434042761333 0.043847118397 -0.788000506318
O -0.239792176952 0.303833746795 -2.359479622891
H -0.409035414688 -0.465779399255 0.858775114695
H -1.549455565116 0.597514519774 -0.015653696511
H -1.467425838007 -1.111317393645 -0.430435279511
F -0.411940427254 -0.118027995964 3.444618768172
