8
Coordinates from XML
C -0.867262622231 -0.25411982905 -0.191095208471
C 0.21534586488 0.059825265232 -1.267381672029
O 1.434042761333 0.043847118397 -0.870801630437
O -0.239792176952 0.303833746795 -2.44228074701
H -0.409035414688 -0.465779399255 0.775973990576
H -1.549455565116 0.597514519774 -0.09845482063
H -1.467425838007 -1.111317393645 -0.51323640363
F -0.411940427254 -0.118027995964 3.701817644053
