8
Coordinates from XML
C 0.683040662515 -1.052762131804 -0.744835717732
C -0.166081188504 0.254112768221 -0.752915818799
O -0.499392341851 0.709551638977 -1.903668731483
O -0.437539911278 0.734081676207 0.405970984036
H 0.861778950384 -1.410594501772 -1.759726550575
H 1.639303831908 -0.865191034053 -0.245207504929
H 0.164898123174 -1.823624460966 -0.165130552719
F 0.320858303764 -0.493489435027 2.322069443971
