8
Coordinates from XML
C 0.683040662515 -1.052762131804 -0.759447680812
C -0.166081188504 0.254112768221 -0.767527781879
O -0.499392341851 0.709551638977 -1.918280694562
O -0.437539911278 0.734081676207 0.391359020956
H 0.861778950384 -1.410594501772 -1.774338513655
H 1.639303831908 -0.865191034053 -0.259819468009
H 0.164898123174 -1.823624460966 -0.179742515799
F 0.320858303764 -0.493489435027 2.367457480892
