8
Coordinates from XML
C 0.683040662515 -1.052762131804 -0.808154224411
C -0.166081188504 0.254112768221 -0.816234325478
O -0.499392341851 0.709551638977 -1.966987238162
O -0.437539911278 0.734081676207 0.342652477357
H 0.861778950384 -1.410594501772 -1.823045057254
H 1.639303831908 -0.865191034053 -0.308526011608
H 0.164898123174 -1.823624460966 -0.228449059398
F 0.320858303764 -0.493489435027 2.518750937292
