8
Coordinates from XML
C 0.683040662515 -1.052762131804 -0.851990113651
C -0.166081188504 0.254112768221 -0.860070214718
O -0.499392341851 0.709551638977 -2.010823127401
O -0.437539911278 0.734081676207 0.298816588117
H 0.861778950384 -1.410594501772 -1.866880946494
H 1.639303831908 -0.865191034053 -0.352361900848
H 0.164898123174 -1.823624460966 -0.272284948638
F 0.320858303764 -0.493489435027 2.654915048053
