8
Coordinates from XML
C 0.683040662515 -1.052762131804 -0.988368435729
C -0.166081188504 0.254112768221 -0.996448536796
O -0.499392341851 0.709551638977 -2.14720144948
O -0.437539911278 0.734081676207 0.162438266039
H 0.861778950384 -1.410594501772 -2.003259268572
H 1.639303831908 -0.865191034053 -0.488740222926
H 0.164898123174 -1.823624460966 -0.408663270716
F 0.320858303764 -0.493489435027 3.078536725974
