14
Coordinates from XML
N 0.268656142026 -0.748812777439 -0.321716171442
C -0.395652112153 -0.273986417381 -1.586324079738
H -0.089460826228 -1.679258597669 -0.047760433107
H 0.087516856212 -0.091710384151 0.455537778866
H 1.291672417882 -0.822194813972 -0.451295452764
H -1.471807040081 -0.250835171769 -1.389030187736
H -0.190762074947 -1.02774425702 -2.352763327126
C 0.067911284839 1.107083551659 -2.083437540714
H -0.136437625067 1.876880108575 -1.335269974402
H -0.460462633779 1.374756493803 -3.001824110612
H 1.139944856693 1.102953501048 -2.295187530558
O -0.02127909525 -0.058180596561 3.257185332168
H 0.179531164054 0.200761456912 4.161478328216
H 0.157530933178 0.724482112228 2.727480104703
