14
Coordinates from XML
N 0.896152073761 -0.683227655126 -1.798364024342
C -0.427469958564 0.016216156012 -1.640878275453
H 0.951443834932 -1.159130413354 -2.714599976354
H 1.02518494581 -1.392948398094 -1.057846850786
H 1.676302883003 -0.007598017261 -1.738136776546
H -1.203739471657 -0.747797073396 -1.746990090222
H -0.510552474063 0.725193246015 -2.470341179728
C -0.61362414823 0.759410835811 -0.305821961626
H -0.543371862318 0.066694676249 0.536382800831
H -1.595740024906 1.237604849728 -0.273563886128
H 0.147424542894 1.534077285179 -0.184134342445
O 0.031013407286 -0.009303062994 3.292030446136
H -0.049223942588 0.811798843433 2.79758611464
H -0.445255343546 -0.662501998766 2.770857924521
