14
Coordinates from XML
N -0.942917201954 0.799283608244 -1.017529626741
C 0.154282327983 -0.166664248506 -0.658229445771
H -1.414960537567 1.149282515885 -0.166821223201
H -1.651886378285 0.341789864869 -1.614841003817
H -0.561713685376 1.610888689377 -1.532038212994
H -0.311874011836 -0.978585716258 -0.091614862522
H 0.846975726185 0.371535887942 -0.003953970673
C 0.923858977452 -0.749393883489 -1.857206104678
H 0.250807766636 -1.299619867932 -2.51928869542
H 1.699046280926 -1.437103586756 -1.510216620449
H 1.405164303392 0.045528217217 -2.432145346452
O -0.063758171865 -0.014382900034 3.018179759282
H 0.567538923846 -0.092058410675 2.296686819612
H 0.446768124562 0.318430292847 3.762303303663
