14
Coordinates from XML
N -0.393958321241 -0.531036040496 -2.428697346964
C -0.200832685127 -0.325919079768 -0.94997214883
H -0.962948749507 -1.375193032186 -2.609467366115
H 0.516739126716 -0.647965293883 -2.903751456921
H -0.876856310916 0.279933136167 -2.850451469849
H 0.282790218125 -1.229240903068 -0.565669065443
H -1.199240103036 -0.242372691423 -0.509787463772
C 0.635850868896 0.909030595212 -0.570199840475
H 1.641227536942 0.840879403774 -0.992897242589
H 0.726639913012 0.98410708683 0.516254283488
H 0.164835317262 1.824113316917 -0.937458682785
O -0.006508453687 0.034472225575 3.56379019903
H -0.427382224588 -0.801238602039 3.341137438937
H 0.531597076882 0.255270176872 2.7977534684
