11
Coordinates from XML
N 0.012155976036 -0.130768277365 -0.907759537913
C -0.013914526715 0.1497344027 -2.356213981574
H 0.827089484836 -0.703465657086 -0.651558781677
H -0.830116924246 -0.640167380695 -0.60948294651
H 0.059251496229 0.737673337853 -0.358660026955
H -0.063787180437 -0.806338237617 -2.880641626582
H 0.901312994737 0.688665653245 -2.608548484097
H -0.896980330144 0.75741879848 -2.562824828192
O -0.022186915965 0.053329975596 2.847742088817
H -0.314799076378 -0.85530655182 2.965552761603
H 0.666930489278 0.009212993098 2.178195627661
