11
Coordinates from XML
N 0.040088459115 -0.239283741636 -1.996455095989
C -0.045915769475 0.274001199385 -0.615685911083
H -0.830292965198 -0.065098287762 -2.515909948571
H 0.210410511802 -1.25353503786 -2.009289287741
H 0.805784325102 0.209669811645 -2.516137352569
H -0.872422749515 -0.238436702806 -0.11982288731
H -0.226497207819 1.34928183275 -0.669749888319
H 0.902872507783 0.059692637847 -0.120058807921
O 0.010780825224 0.050565101422 2.367134275805
H -0.758577035316 -0.52627788077 2.38863372514
H 0.587331201821 -0.275594447157 3.064508767822
