11
Coordinates from XML
N -0.154294691433 0.55707938644 -1.934340345955
C 0.176684441791 -0.637899693608 -1.134428156013
H -0.642270860998 0.303011274745 -2.803285909588
H 0.69238110534 1.079054100282 -2.196184771651
H -0.76510627804 1.199686400304 -1.412914865757
H 0.82315916217 -1.276242101629 -1.739552883679
H -0.758333850498 -1.145448965403 -0.889692503147
H 0.689893535852 -0.303266112054 -0.230873856665
O 0.060110088393 -0.014651898684 2.757077493751
H -0.37760013857 0.841554628861 2.736060610036
H -0.576040290952 -0.610706713491 3.163467605103
