11
Coordinates from XML
N -0.120324326063 0.497563229225 -0.90761926056
C 0.137774729966 -0.569735652559 -1.893337107725
H -1.127974200554 0.617432901785 -0.740255190225
H 0.249720941893 1.401852929062 -1.22887717631
H 0.320756433753 0.286593089449 -0.002711274385
H -0.353461996329 -0.288235871412 -2.826627460162
H -0.276468452993 -1.498417729605 -1.496205901263
H 1.218552483472 -0.647215065784 -2.026340746974
O 0.061263321402 0.022883663534 2.435699760881
H -0.752627530353 0.532308906813 2.379226998066
H -0.219422821654 -0.89707248409 2.439888501193
