11
Coordinates from XML
N -0.672257006015 0.126690101938 -1.173282008244
C 0.769768278297 -0.145055112261 -1.018042457984
H -0.846700743156 1.119574241964 -1.376968549427
H -1.192354761468 -0.109761576863 -0.318022434568
H -1.076405898356 -0.422818220571 -1.943102361517
H 1.137230593194 0.464502810459 -0.190396932425
H 1.263115562733 0.124898830103 -1.953721001043
H 0.887979476782 -1.209140308608 -0.804682697329
O -0.065294392097 -0.002306205422 1.957349998423
H 0.487888605964 0.749182743024 2.190533404823
H 0.550591845532 -0.712967646325 1.755444008634
