11
Coordinates from XML
N -0.644534551224 -0.212244518928 -1.364878578788
C 0.738031913744 0.243031424878 -1.122772228318
H -1.014693263642 -0.73177330058 -0.558150549861
H -0.696731641146 -0.833157284959 -2.183183418554
H -1.275538084324 0.581371493735 -1.537873566171
H 1.354583322372 -0.640469702777 -0.947054705144
H 0.726591997719 0.894359322933 -0.246757326882
H 1.071553013784 0.784400901621 -2.010159598906
O -0.007192028819 0.057416622891 2.258677206562
H -0.700481139187 -0.525169760939 1.934540067651
H 0.816627765343 -0.385538992727 2.034550368948
