11
Coordinates from XML
N 0.185636212981 -0.160558968995 -0.918795604055
C -0.212565911744 0.183843299557 -2.297274419736
H -0.141896419942 -1.099862447584 -0.657703494863
H -0.206096917857 0.503954660541 -0.238467153699
H 1.208336494455 -0.148054768295 -0.809952233856
H -1.302584019857 0.153368994016 -2.347457790372
H 0.232107070879 -0.554174229307 -2.967615434156
H 0.162528891903 1.186184445079 -2.512657093759
O 0.062547553182 0.019197096108 2.776693108378
H -0.720023346204 0.577834052845 2.801775133843
H -0.2733554823 -0.882050672056 2.783264343633
