8
Coordinates from XML
C -0.08317608225 0.085759861162 -2.615918101658
C -0.12317608225 0.089759861162 -1.103918101658
O 0.87182391775 -0.570240138838 -0.570918101658
O -1.09017608225 0.447759861162 -0.462918101658
H 0.87482391775 0.473759861162 -2.970918101658
H -0.20417608225 -0.932240138838 -2.994918101658
H -0.88117608225 0.710759861162 -3.021918101658
Na 0.268855496697 -0.017461191469 3.054934529921
