8
Coordinates from XML
C 0.797083649485 -0.215568941885 -0.337366181504
C 0.757083649485 -0.211568941885 1.174633818496
O 1.752083649485 -0.871568941885 1.707633818496
O -0.209916350515 0.146431058115 1.815633818496
H 1.755083649485 0.172431058115 -0.692366181504
H 0.676083649485 -1.233568941885 -0.716366181504
H -0.000916350515 0.409431058115 -0.743366181504
Na -1.990716350515 0.756031058115 -2.793966181504
