8
Coordinates from XML
C -1.431957347654 0.213569638568 -0.897936058108
C 0.111279566457 -0.022608374048 -1.055677984471
O 0.490675382456 -1.239942606013 -1.258103688248
O 0.839795499865 1.042032912613 -0.96208545605
H -1.987870952154 -0.726084257602 -1.003280599634
H -1.63157771955 0.657134838665 0.088921117674
H -1.768623255065 0.935837403238 -1.65630877877
Na -0.000104439019 1.4878939e-05 2.677098990472
