8
Coordinates from XML
C -1.291528177433 -0.431554288405 -1.992947970402
C 0.103471567414 0.034062555757 -1.445755674806
O 1.058988136444 0.129041008819 -2.308766197816
O 0.140758002809 0.271686299105 -0.174889523632
H -1.254493721365 -0.599663518564 -3.076209060114
H -1.590482568982 -1.358411398129 -1.481042085564
H -2.047738540428 0.331824479535 -1.757273228233
Na -9.3835664e-05 -3.1422019e-05 3.799700623812
