8
Coordinates from XML
C -0.110248434713 0.095027216318 -2.685994873846
C -0.150248434713 0.099027216318 -1.173994873846
O 0.844751565287 -0.560972783682 -0.640994873846
O -1.117248434713 0.457027216318 -0.532994873846
H 0.847751565287 0.483027216318 -3.040994873846
H -0.231248434713 -0.922972783682 -3.064994873846
H -0.908248434713 0.720027216318 -3.091994873846
Na 0.338348537509 -0.041249914335 3.234817234845
