8
Coordinates from XML
C -0.111040038519 0.095298196597 -2.688043939942
C -0.151040038519 0.099298196597 -1.176043939942
O 0.843959961481 -0.560701803403 -0.643043939942
O -1.118040038519 0.457298196597 -0.535043939942
H 0.846959961481 0.483298196597 -3.043043939942
H -0.232040038519 -0.922701803403 -3.067043939942
H -0.909040038519 0.720298196597 -3.094043939942
Na 0.340380535123 -0.041945503814 3.240077059754
