8
Coordinates from XML
C -0.112623246131 0.095840157154 -2.692142072134
C -0.152623246131 0.099840157154 -1.180142072134
O 0.842376753869 -0.560159842846 -0.647142072134
O -1.119623246131 0.457840157154 -0.539142072134
H 0.845376753869 0.483840157154 -3.047142072134
H -0.233623246131 -0.922159842846 -3.071142072134
H -0.910623246131 0.720840157154 -3.098142072134
Na 0.344444530349 -0.043336682773 3.250596709573
