8
Coordinates from XML
C -0.114998057549 0.09665309799 -2.698289270422
C -0.154998057549 0.10065309799 -1.186289270422
O 0.840001942451 -0.55934690201 -0.653289270422
O -1.121998057549 0.45865309799 -0.545289270422
H 0.843001942451 0.48465309799 -3.053289270422
H -0.235998057549 -0.92134690201 -3.077289270422
H -0.912998057549 0.72165309799 -3.104289270422
Na 0.35054052319 -0.045423451212 3.266376184302
