8
Coordinates from XML
C -0.116581265161 0.097195058547 -2.702387402615
C -0.156581265161 0.101195058547 -1.190387402615
O 0.838418734839 -0.558804941453 -0.657387402615
O -1.123581265161 0.459195058547 -0.549387402615
H 0.841418734839 0.485195058547 -3.057387402615
H -0.237581265161 -0.920804941453 -3.081387402615
H -0.914581265161 0.722195058547 -3.108387402615
Na 0.354604518417 -0.046814630171 3.276895834121
