8
Coordinates from XML
C -0.117372868967 0.097466038826 -2.704436468711
C -0.157372868967 0.101466038826 -1.192436468711
O 0.837627131033 -0.558533961174 -0.659436468711
O -1.124372868967 0.459466038826 -0.551436468711
H 0.840627131033 0.485466038826 -3.059436468711
H -0.238372868967 -0.920533961174 -3.083436468711
H -0.915372868967 0.722466038826 -3.110436468711
Na 0.35663651603 -0.047510219651 3.282155659031
