8
Coordinates from XML
C -0.118956076579 0.098007999383 -2.708534600903
C -0.158956076579 0.102007999383 -1.196534600903
O 0.836043923421 -0.557992000617 -0.663534600903
O -1.125956076579 0.460007999383 -0.555534600903
H 0.839043923421 0.486007999383 -3.063534600903
H -0.239956076579 -0.919992000617 -3.087534600903
H -0.916956076579 0.723007999383 -3.114534600903
Na 0.360700511257 -0.04890139861 3.29267530885
