8
Coordinates from XML
C -0.119747680385 0.098278979661 -2.710583666999
C -0.159747680385 0.102278979661 -1.198583666999
O 0.835252319615 -0.557721020339 -0.665583666999
O -1.126747680385 0.460278979661 -0.557583666999
H 0.838252319615 0.486278979661 -3.065583666999
H -0.240747680385 -0.919721020339 -3.089583666999
H -0.917747680385 0.723278979661 -3.116583666999
Na 0.362732508871 -0.049596988089 3.29793513376
