8
Coordinates from XML
C -0.122122491803 0.099091920497 -2.716730865287
C -0.162122491803 0.103091920497 -1.204730865287
O 0.832877508197 -0.556908079503 -0.671730865287
O -1.129122491803 0.461091920497 -0.563730865287
H 0.835877508197 0.487091920497 -3.071730865287
H -0.243122491803 -0.918908079503 -3.095730865287
H -0.920122491803 0.724091920497 -3.122730865287
Na 0.368828501711 -0.051683756528 3.313714608488
