8
Coordinates from XML
C -0.124497303221 0.099904861333 -2.722878063576
C -0.164497303221 0.103904861333 -1.210878063576
O 0.830502696779 -0.556095138667 -0.677878063576
O -1.131497303221 0.461904861333 -0.569878063576
H 0.833502696779 0.487904861333 -3.077878063576
H -0.245497303221 -0.918095138667 -3.101878063576
H -0.922497303221 0.724904861333 -3.128878063576
Na 0.374924494551 -0.053770524966 3.329494083217
