8
Coordinates from XML
C -0.109791063625 0.094870649935 -2.68481096899
C -0.149791063625 0.098870649935 -1.17281096899
O 0.845208936375 -0.561129350065 -0.63981096899
O -1.116791063625 0.456870649935 -0.53181096899
H 0.848208936375 0.482870649935 -3.03981096899
H -0.230791063625 -0.923129350065 -3.06381096899
H -0.907791063625 0.719870649935 -3.09081096899
Na 0.337174494444 -0.040848018191 3.231778224897
