8
Coordinates from XML
C -0.111796459934 0.095557133307 -2.690001936434
C -0.151796459934 0.099557133307 -1.178001936434
O 0.843203540066 -0.560442866693 -0.645001936434
O -1.118796459934 0.457557133307 -0.537001936434
H 0.846203540066 0.483557133307 -3.045001936434
H -0.232796459934 -0.922442866693 -3.069001936434
H -0.909796459934 0.720557133307 -3.096001936434
Na 0.342322221731 -0.042610178206 3.245103114668
