8
Coordinates from XML
C -0.113133390806 0.096014788889 -2.693462581396
C -0.153133390806 0.100014788889 -1.181462581396
O 0.841866609194 -0.559985211111 -0.648462581396
O -1.120133390806 0.458014788889 -0.540462581396
H 0.844866609194 0.484014788889 -3.048462581396
H -0.234133390806 -0.921985211111 -3.072462581396
H -0.911133390806 0.721014788889 -3.099462581396
Na 0.345754039923 -0.043784951549 3.253986374515
