8
Coordinates from XML
C -0.113801856242 0.09624361668 -2.695192903877
C -0.153801856242 0.10024361668 -1.183192903877
O 0.841198143758 -0.55975638332 -0.650192903877
O -1.120801856242 0.45824361668 -0.542192903877
H 0.844198143758 0.48424361668 -3.050192903877
H -0.234801856242 -0.92175638332 -3.074192903877
H -0.911801856242 0.72124361668 -3.101192903877
Na 0.347469949018 -0.044372338221 3.258428004439
