8
Coordinates from XML
C -0.11989668816 0.098329987714 -2.710969373558
C -0.15989668816 0.102329987714 -1.198969373558
O 0.83510331184 -0.557670012286 -0.665969373558
O -1.12689668816 0.460329987714 -0.557969373558
H 0.83810331184 0.486329987714 -3.065969373558
H -0.24089668816 -0.919670012286 -3.089969373558
H -0.91789668816 0.723329987714 -3.116969373558
Na 0.363115002539 -0.049727922579 3.298925218448
