8
Coordinates from XML
C -0.121135315292 0.09875399215 -2.714175559332
C -0.161135315292 0.10275399215 -1.202175559332
O 0.833864684708 -0.55724600785 -0.669175559332
O -1.128135315292 0.46075399215 -0.561175559332
H 0.836864684708 0.48675399215 -3.069175559332
H -0.242135315292 -0.91924600785 -3.093175559332
H -0.919135315292 0.72375399215 -3.120175559332
Na 0.366294481158 -0.05081631553 3.307155297425
