8
Coordinates from XML
C -0.131044332345 0.102146027637 -2.739825045524
C -0.171044332345 0.106146027637 -1.227825045524
O 0.823955667655 -0.553853972363 -0.694825045524
O -1.138044332345 0.464146027637 -0.586825045524
H 0.826955667655 0.490146027637 -3.094825045524
H -0.252044332345 -0.915853972363 -3.118825045524
H -0.929044332345 0.727146027637 -3.145825045524
Na 0.391730310107 -0.059523459132 3.372995929234
