8
Coordinates from XML
C -0.133521586609 0.102994036509 -2.746237417072
C -0.173521586609 0.106994036509 -1.234237417072
O 0.821478413391 -0.553005963491 -0.701237417072
O -1.140521586609 0.464994036509 -0.593237417072
H 0.824478413391 0.490994036509 -3.101237417072
H -0.254521586609 -0.915005963491 -3.125237417072
H -0.931521586609 0.727994036509 -3.152237417072
Na 0.398089267345 -0.061700245033 3.389456087186
