8
Coordinates from XML
C -0.137237468004 0.104266049817 -2.755855974393
C -0.177237468004 0.108266049817 -1.243855974393
O 0.817762531996 -0.551733950183 -0.710855974393
O -1.144237468004 0.466266049817 -0.602855974393
H 0.820762531996 0.492266049817 -3.110855974393
H -0.258237468004 -0.913733950183 -3.134855974393
H -0.935237468004 0.729266049817 -3.161855974393
Na 0.407627703201 -0.064965423884 3.414146324114
