8
Coordinates from XML
C -0.14219197653 0.10596206756 -2.768680717489
C -0.18219197653 0.10996206756 -1.256680717489
O 0.81280802347 -0.55003793244 -0.723680717489
O -1.14919197653 0.46796206756 -0.615680717489
H 0.81580802347 0.49396206756 -3.123680717489
H -0.26319197653 -0.91203793244 -3.147680717489
H -0.94019197653 0.73096206756 -3.174680717489
Na 0.420345617675 -0.069318995685 3.447066640019
