8
Coordinates from XML
C -0.144669230794 0.106810076432 -2.775093089037
C -0.184669230794 0.110810076432 -1.263093089037
O 0.810330769206 -0.549189923568 -0.730093089037
O -1.151669230794 0.468810076432 -0.622093089037
H 0.813330769206 0.494810076432 -3.130093089037
H -0.265669230794 -0.911189923568 -3.154093089037
H -0.942669230794 0.731810076432 -3.181093089037
Na 0.426704574913 -0.071495781586 3.463526797971
