8
Coordinates from XML
C -0.145907857925 0.107234080868 -2.778299274811
C -0.185907857925 0.111234080868 -1.266299274811
O 0.809092142075 -0.548765919132 -0.733299274811
O -1.152907857925 0.469234080868 -0.625299274811
H 0.812092142075 0.495234080868 -3.133299274811
H -0.266907857925 -0.910765919132 -3.157299274811
H -0.943907857925 0.732234080868 -3.184299274811
Na 0.429884053531 -0.072584174536 3.471756876947
