8
Coordinates from XML
C -0.148385112189 0.10808208974 -2.784711646359
C -0.188385112189 0.11208208974 -1.272711646359
O 0.806614887811 -0.54791791026 -0.739711646359
O -1.155385112189 0.47008208974 -0.631711646359
H 0.809614887811 0.49608208974 -3.139711646359
H -0.269385112189 -0.90991791026 -3.163711646359
H -0.946385112189 0.73308208974 -3.190711646359
Na 0.436243010769 -0.074760960437 3.4882170349
