8
Coordinates from XML
C -0.150862366452 0.108930098612 -2.791124017907
C -0.190862366452 0.112930098612 -1.279124017907
O 0.804137633548 -0.547069901388 -0.746124017907
O -1.157862366452 0.470930098612 -0.638124017907
H 0.807137633548 0.496930098612 -3.146124017907
H -0.271862366452 -0.909069901388 -3.170124017907
H -0.948862366452 0.733930098612 -3.197124017907
Na 0.442601968006 -0.076937746338 3.504677192852
