8
Coordinates from XML
C -0.152100993584 0.109354103047 -2.794330203681
C -0.192100993584 0.113354103047 -1.282330203681
O 0.802899006416 -0.546645896953 -0.749330203681
O -1.159100993584 0.471354103047 -0.641330203681
H 0.805899006416 0.497354103047 -3.149330203681
H -0.273100993584 -0.908645896953 -3.173330203681
H -0.950100993584 0.734354103047 -3.200330203681
Na 0.445781446625 -0.078026139288 3.512907271828
