8
Coordinates from XML
C -0.153339620715 0.109778107483 -2.797536389454
C -0.193339620715 0.113778107483 -1.285536389454
O 0.801660379285 -0.546221892517 -0.752536389454
O -1.160339620715 0.471778107483 -0.644536389454
H 0.804660379285 0.497778107483 -3.152536389454
H -0.274339620715 -0.908221892517 -3.176536389454
H -0.951339620715 0.734778107483 -3.203536389454
Na 0.448960925244 -0.079114532238 3.521137350804
