8
Coordinates from XML
C -0.11127991846 0.095380311833 -2.688664869062
C -0.15127991846 0.099380311833 -1.176664869062
O 0.84372008154 -0.560619688167 -0.643664869062
O -1.11827991846 0.457380311833 -0.535664869062
H 0.84672008154 0.483380311833 -3.043664869062
H -0.23227991846 -0.922619688167 -3.067664869062
H -0.90927991846 0.720380311833 -3.094664869062
Na 0.340996291975 -0.042156288505 3.241670946091
