8
Coordinates from XML
C -0.112419348181 0.095770359203 -2.691614282382
C -0.152419348181 0.099770359203 -1.179614282382
O 0.842580651819 -0.560229640797 -0.646614282382
O -1.119419348181 0.457770359203 -0.538614282382
H 0.845580651819 0.483770359203 -3.046614282382
H -0.233419348181 -0.922229640797 -3.070614282382
H -0.910419348181 0.720770359203 -3.097614282382
Na 0.343921137025 -0.043157515786 3.249241906188
