8
Coordinates from XML
C -0.115837637343 0.096940501316 -2.700462522342
C -0.155837637343 0.100940501316 -1.188462522342
O 0.839162362657 -0.559059498684 -0.655462522342
O -1.122837637343 0.458940501316 -0.547462522342
H 0.842162362657 0.484940501316 -3.055462522342
H -0.236837637343 -0.921059498684 -3.079462522342
H -0.913837637343 0.721940501316 -3.106462522342
Na 0.352695672174 -0.04616119763 3.271954786479
