8
Coordinates from XML
C -0.116977067064 0.097330548686 -2.703411935663
C -0.156977067064 0.101330548686 -1.191411935663
O 0.838022932936 -0.558669451314 -0.658411935663
O -1.123977067064 0.459330548686 -0.550411935663
H 0.841022932936 0.485330548686 -3.058411935663
H -0.237977067064 -0.920669451314 -3.082411935663
H -0.914977067064 0.722330548686 -3.109411935663
Na 0.355620517223 -0.047162424911 3.279525746576
