8
Coordinates from XML
C -0.119255926505 0.098110643428 -2.709310762303
C -0.159255926505 0.102110643428 -1.197310762303
O 0.835744073495 -0.557889356572 -0.664310762303
O -1.126255926505 0.460110643428 -0.556310762303
H 0.838744073495 0.486110643428 -3.064310762303
H -0.240255926505 -0.919889356572 -3.088310762303
H -0.917255926505 0.723110643428 -3.115310762303
Na 0.361470207323 -0.049164879473 3.29466766677
