8
Coordinates from XML
C -0.120395356226 0.098500690798 -2.712260175623
C -0.160395356226 0.102500690798 -1.200260175623
O 0.834604643774 -0.557499309202 -0.667260175623
O -1.127395356226 0.460500690798 -0.559260175623
H 0.837604643774 0.486500690798 -3.067260175623
H -0.241395356226 -0.919499309202 -3.091260175623
H -0.918395356226 0.723500690798 -3.118260175623
Na 0.364395052372 -0.050166106754 3.302238626867
