8
Coordinates from XML
C -0.121534785947 0.098890738169 -2.715209588943
C -0.161534785947 0.102890738169 -1.203209588943
O 0.833465214053 -0.557109261831 -0.670209588943
O -1.128534785947 0.460890738169 -0.562209588943
H 0.836465214053 0.486890738169 -3.070209588943
H -0.242534785947 -0.919109261831 -3.094209588943
H -0.919534785947 0.723890738169 -3.121209588943
Na 0.367319897422 -0.051167334035 3.309809586964
