8
Coordinates from XML
C -0.122674215667 0.09928078554 -2.718159002264
C -0.162674215667 0.10328078554 -1.206159002264
O 0.832325784333 -0.55671921446 -0.673159002264
O -1.129674215667 0.46128078554 -0.565159002264
H 0.835325784333 0.48728078554 -3.073159002264
H -0.243674215667 -0.91871921446 -3.097159002264
H -0.920674215667 0.72428078554 -3.124159002264
Na 0.370244742472 -0.052168561317 3.317380547062
