8
Coordinates from XML
C -0.126092504829 0.100450927652 -2.727007242224
C -0.166092504829 0.104450927652 -1.215007242224
O 0.828907495171 -0.555549072348 -0.682007242224
O -1.133092504829 0.462450927652 -0.574007242224
H 0.831907495171 0.488450927652 -3.082007242224
H -0.247092504829 -0.917549072348 -3.106007242224
H -0.924092504829 0.725450927652 -3.133007242224
Na 0.379019277621 -0.05517224316 3.340093427353
