8
Coordinates from XML
C -0.12723193455 0.100840975023 -2.729956655544
C -0.16723193455 0.104840975023 -1.217956655544
O 0.82776806545 -0.555159024977 -0.684956655544
O -1.13423193455 0.462840975023 -0.576956655544
H 0.83076806545 0.488840975023 -3.084956655544
H -0.24823193455 -0.917159024977 -3.108956655544
H -0.92523193455 0.725840975023 -3.135956655544
Na 0.38194412267 -0.056173470441 3.34766438745
