8
Coordinates from XML
C -0.130650223712 0.102011117135 -2.738804895505
C -0.170650223712 0.106011117135 -1.226804895505
O 0.824349776288 -0.553988882865 -0.693804895505
O -1.137650223712 0.464011117135 -0.585804895505
H 0.827349776288 0.490011117135 -3.093804895505
H -0.251650223712 -0.915988882865 -3.117804895505
H -0.928650223712 0.727011117135 -3.144804895505
Na 0.390718657819 -0.059177152285 3.370377267741
