8
Coordinates from XML
C -0.131789653433 0.102401164505 -2.741754308825
C -0.171789653433 0.106401164505 -1.229754308825
O 0.823210346567 -0.553598835495 -0.696754308825
O -1.138789653433 0.464401164505 -0.588754308825
H 0.826210346567 0.490401164505 -3.096754308825
H -0.252789653433 -0.915598835495 -3.120754308825
H -0.929789653433 0.727401164505 -3.147754308825
Na 0.393643502869 -0.060178379566 3.377948227838
