8
Coordinates from XML
C -0.134068512874 0.103181259247 -2.747653135465
C -0.174068512874 0.107181259247 -1.235653135465
O 0.820931487126 -0.552818740753 -0.702653135465
O -1.141068512874 0.465181259247 -0.594653135465
H 0.823931487126 0.491181259247 -3.102653135465
H -0.255068512874 -0.914818740753 -3.126653135465
H -0.932068512874 0.728181259247 -3.153653135465
Na 0.399493192968 -0.062180834128 3.393090148033
