8
Coordinates from XML
C -0.135207942595 0.103571306617 -2.750602548785
C -0.175207942595 0.107571306617 -1.238602548785
O 0.819792057405 -0.552428693383 -0.705602548785
O -1.142207942595 0.465571306617 -0.597602548785
H 0.822792057405 0.491571306617 -3.105602548785
H -0.256207942595 -0.914428693383 -3.129602548785
H -0.933207942595 0.728571306617 -3.156602548785
Na 0.402418038018 -0.063182061409 3.40066110813
