8
Coordinates from XML
C -0.136347372316 0.103961353988 -2.753551962106
C -0.176347372316 0.107961353988 -1.241551962106
O 0.818652627684 -0.552038646012 -0.708551962106
O -1.143347372316 0.465961353988 -0.600551962106
H 0.821652627684 0.491961353988 -3.108551962106
H -0.257347372316 -0.914038646012 -3.132551962106
H -0.934347372316 0.728961353988 -3.159551962106
Na 0.405342883068 -0.06418328869 3.408232068227
