8
Coordinates from XML
C -0.138626231757 0.10474144873 -2.759450788746
C -0.178626231757 0.10874144873 -1.247450788746
O 0.816373768243 -0.55125855127 -0.714450788746
O -1.145626231757 0.46674144873 -0.606450788746
H 0.819373768243 0.49274144873 -3.114450788746
H -0.259626231757 -0.91325855127 -3.138450788746
H -0.936626231757 0.72974144873 -3.165450788746
Na 0.411192573167 -0.066185743253 3.423373988421
