8
Coordinates from XML
C -0.14318395064 0.106301638212 -2.771248442027
C -0.18318395064 0.110301638212 -1.259248442027
O 0.81181604936 -0.549698361788 -0.726248442027
O -1.15018395064 0.468301638212 -0.618248442027
H 0.81481604936 0.494301638212 -3.126248442027
H -0.26418395064 -0.911698361788 -3.150248442027
H -0.94118395064 0.731301638212 -3.177248442027
Na 0.422891953366 -0.070190652377 3.453657828809
