8
Coordinates from XML
C -0.144323380361 0.106691685583 -2.774197855347
C -0.184323380361 0.110691685583 -1.262197855347
O 0.810676619639 -0.549308314417 -0.729197855347
O -1.151323380361 0.468691685583 -0.621197855347
H 0.813676619639 0.494691685583 -3.129197855347
H -0.265323380361 -0.911308314417 -3.153197855347
H -0.942323380361 0.731691685583 -3.180197855347
Na 0.425816798415 -0.071191879658 3.461228788907
