8
Coordinates from XML
C -0.145462810082 0.107081732954 -2.777147268667
C -0.185462810082 0.111081732954 -1.265147268667
O 0.809537189918 -0.548918267046 -0.732147268667
O -1.152462810082 0.469081732954 -0.624147268667
H 0.812537189918 0.495081732954 -3.132147268667
H -0.266462810082 -0.910918267046 -3.156147268667
H -0.943462810082 0.732081732954 -3.183147268667
Na 0.428741643465 -0.07219310694 3.468799749004
