8
Coordinates from XML
C -0.146602239802 0.107471780324 -2.780096681987
C -0.186602239802 0.111471780324 -1.268096681987
O 0.808397760198 -0.548528219676 -0.735096681987
O -1.153602239802 0.469471780324 -0.627096681987
H 0.811397760198 0.495471780324 -3.135096681987
H -0.267602239802 -0.910528219676 -3.159096681987
H -0.944602239802 0.732471780324 -3.186096681987
Na 0.431666488515 -0.073194334221 3.476370709101
