8
Coordinates from XML
C -0.152299388406 0.109422017178 -2.794843748588
C -0.192299388406 0.113422017178 -1.282843748588
O 0.802700611594 -0.546577982822 -0.749843748588
O -1.159299388406 0.471422017178 -0.641843748588
H 0.805700611594 0.497422017178 -3.149843748588
H -0.273299388406 -0.908577982822 -3.173843748588
H -0.950299388406 0.734422017178 -3.200843748588
Na 0.446290713763 -0.078200470626 3.514225509586
