8
Coordinates from XML
C -0.153438818126 0.109812064549 -2.797793161908
C -0.193438818126 0.113812064549 -1.285793161908
O 0.801561181874 -0.546187935451 -0.752793161908
O -1.160438818126 0.471812064549 -0.644793161908
H 0.804561181874 0.497812064549 -3.152793161908
H -0.274438818126 -0.908187935451 -3.176793161908
H -0.951438818126 0.734812064549 -3.203793161908
Na 0.449215558813 -0.079201697908 3.521796469683
