8
Coordinates from XML
C -0.154578247847 0.110202111919 -2.800742575228
C -0.194578247847 0.114202111919 -1.288742575228
O 0.800421752153 -0.545797888081 -0.755742575228
O -1.161578247847 0.472202111919 -0.647742575228
H 0.803421752153 0.498202111919 -3.155742575228
H -0.275578247847 -0.907797888081 -3.179742575228
H -0.952578247847 0.735202111919 -3.206742575228
Na 0.452140403862 -0.080202925189 3.52936742978
