8
Coordinates from XML
C 0.740631962464 -0.953434863295 -0.727063455798
C -0.196026380603 0.262970935956 -0.995435008203
O 0.050051446998 1.329286724408 -0.328224772931
O -1.119968206628 0.057745294935 -1.862206345396
H 1.508409802163 -0.702914661563 0.006252029194
H 0.147165999463 -1.800161076388 -0.366364983807
H 1.210918127822 -1.268430295938 -1.664275971733
Na 0.334454678811 -0.439276848841 2.511811641618
