8
Coordinates from XML
C 0.740631962464 -0.953434863295 -0.760705759582
C -0.196026380603 0.262970935956 -1.029077311987
O 0.050051446998 1.329286724408 -0.361867076715
O -1.119968206628 0.057745294935 -1.895848649179
H 1.508409802163 -0.702914661563 -0.02739027459
H 0.147165999463 -1.800161076388 -0.400007287591
H 1.210918127822 -1.268430295938 -1.697918275516
Na 0.334454678811 -0.439276848841 2.598169337834
