8
Coordinates from XML
C 0.740631962464 -0.953434863295 -0.93452432913
C -0.196026380603 0.262970935956 -1.202895881535
O 0.050051446998 1.329286724408 -0.535685646263
O -1.119968206628 0.057745294935 -2.069667218728
H 1.508409802163 -0.702914661563 -0.201208844139
H 0.147165999463 -1.800161076388 -0.57382585714
H 1.210918127822 -1.268430295938 -1.871736845065
Na 0.334454678811 -0.439276848841 3.044350768286
