8
Coordinates from XML
C 0.740631962464 -0.953434863295 -0.962559582283
C -0.196026380603 0.262970935956 -1.230931134688
O 0.050051446998 1.329286724408 -0.563720899416
O -1.119968206628 0.057745294935 -2.097702471881
H 1.508409802163 -0.702914661563 -0.229244097292
H 0.147165999463 -1.800161076388 -0.601861110293
H 1.210918127822 -1.268430295938 -1.899772098218
Na 0.334454678811 -0.439276848841 3.116315515133
