8
Coordinates from XML
C 0.740631962464 -0.953434863295 -1.018630088589
C -0.196026380603 0.262970935956 -1.287001640994
O 0.050051446998 1.329286724408 -0.619791405722
O -1.119968206628 0.057745294935 -2.153772978187
H 1.508409802163 -0.702914661563 -0.285314603598
H 0.147165999463 -1.800161076388 -0.657931616599
H 1.210918127822 -1.268430295938 -1.955842604524
Na 0.334454678811 -0.439276848841 3.260245008827
