8
Coordinates from XML
C 0.740631962464 -0.953434863295 -1.130771101201
C -0.196026380603 0.262970935956 -1.399142653606
O 0.050051446998 1.329286724408 -0.731932418334
O -1.119968206628 0.057745294935 -2.265913990799
H 1.508409802163 -0.702914661563 -0.39745561621
H 0.147165999463 -1.800161076388 -0.770072629211
H 1.210918127822 -1.268430295938 -2.067983617136
Na 0.334454678811 -0.439276848841 3.548103996215
