8
Coordinates from XML
C 0.740631962464 -0.953434863295 -1.158806354354
C -0.196026380603 0.262970935956 -1.427177906759
O 0.050051446998 1.329286724408 -0.759967671487
O -1.119968206628 0.057745294935 -2.293949243952
H 1.508409802163 -0.702914661563 -0.425490869363
H 0.147165999463 -1.800161076388 -0.798107882364
H 1.210918127822 -1.268430295938 -2.096018870289
Na 0.334454678811 -0.439276848841 3.620068743062
