8
Coordinates from XML
C 0.740631962464 -0.953434863295 -1.242912113813
C -0.196026380603 0.262970935956 -1.511283666218
O 0.050051446998 1.329286724408 -0.844073430946
O -1.119968206628 0.057745294935 -2.378055003411
H 1.508409802163 -0.702914661563 -0.509596628822
H 0.147165999463 -1.800161076388 -0.882213641823
H 1.210918127822 -1.268430295938 -2.180124629748
Na 0.334454678811 -0.439276848841 3.835962983603
