8
Coordinates from XML
C 0.740631962464 -0.953434863295 -1.545692847866
C -0.196026380603 0.262970935956 -1.814064400271
O 0.050051446998 1.329286724408 -1.146854164999
O -1.119968206628 0.057745294935 -2.680835737463
H 1.508409802163 -0.702914661563 -0.812377362874
H 0.147165999463 -1.800161076388 -1.184994375875
H 1.210918127822 -1.268430295938 -2.4829053638
Na 0.334454678811 -0.439276848841 4.61318224955
