8
Coordinates from XML
C -0.989928525679 -0.460159847764 -1.573498781579
C 0.264880174055 0.123006760503 -0.856304913576
O 0.203108533972 0.206758815608 0.421162508215
O 1.228934608692 0.459560077912 -1.633742707993
H -1.760214850697 -0.737452811877 -0.852553310215
H -1.38889966268 0.280959669882 -2.274080260983
H -0.701416159602 -1.335864977352 -2.16397286278
Na -0.449076554563 -0.209027473298 2.343858524441
