8
Coordinates from XML
C -0.989928525679 -0.460159847764 -1.668818642299
C 0.264880174055 0.123006760503 -0.951624774297
O 0.203108533972 0.206758815608 0.325842647494
O 1.228934608692 0.459560077912 -1.729062568713
H -1.760214850697 -0.737452811877 -0.947873170935
H -1.38889966268 0.280959669882 -2.369400121703
H -0.701416159602 -1.335864977352 -2.259292723501
Na -0.449076554563 -0.209027473298 2.588538663721
