8
Coordinates from XML
C -0.486904208545 -0.146074794537 -2.192506787412
C 0.128121182827 0.032851267521 -0.771688557478
O -0.275230586053 -0.783458825341 0.130363735255
O 0.977078533137 0.9891060368 -0.662478456416
H -1.185616655669 -0.983511102935 -2.214780735106
H -1.002978372453 0.773885457577 -2.486770459575
H 0.31367243966 -0.310907792298 -2.92097477788
Na -0.218836809585 -0.061158536174 2.251594851627
