8
Coordinates from XML
C -0.486904208545 -0.146074794537 -2.327076002546
C 0.128121182827 0.032851267521 -0.906257772612
O -0.275230586053 -0.783458825341 -0.00420547988
O 0.977078533137 0.9891060368 -0.797047671551
H -1.185616655669 -0.983511102935 -2.34934995024
H -1.002978372453 0.773885457577 -2.62133967471
H 0.31367243966 -0.310907792298 -3.055543993014
Na -0.218836809585 -0.061158536174 2.597025636493
