8
Coordinates from XML
C -0.486904208545 -0.146074794537 -2.388753559483
C 0.128121182827 0.032851267521 -0.967935329549
O -0.275230586053 -0.783458825341 -0.065883036816
O 0.977078533137 0.9891060368 -0.858725228487
H -1.185616655669 -0.983511102935 -2.411027507177
H -1.002978372453 0.773885457577 -2.683017231646
H 0.31367243966 -0.310907792298 -3.117221549951
Na -0.218836809585 -0.061158536174 2.755348079556
