8
Coordinates from XML
C -0.486904208545 -0.146074794537 -2.500894572095
C 0.128121182827 0.032851267521 -1.080076342161
O -0.275230586053 -0.783458825341 -0.178024049428
O 0.977078533137 0.9891060368 -0.970866241099
H -1.185616655669 -0.983511102935 -2.523168519789
H -1.002978372453 0.773885457577 -2.795158244258
H 0.31367243966 -0.310907792298 -3.229362562563
Na -0.218836809585 -0.061158536174 3.043207066944
