8
Coordinates from XML
C -0.486904208545 -0.146074794537 -2.73078364795
C 0.128121182827 0.032851267521 -1.309965418015
O -0.275230586053 -0.783458825341 -0.407913125283
O 0.977078533137 0.9891060368 -1.200755316954
H -1.185616655669 -0.983511102935 -2.753057595643
H -1.002978372453 0.773885457577 -3.025047320113
H 0.31367243966 -0.310907792298 -3.459251638417
Na -0.218836809585 -0.061158536174 3.633317991089
