8
Coordinates from XML
C -0.989928525679 -0.460159847764 -1.786566705542
C 0.264880174055 0.123006760503 -1.069372837539
O 0.203108533972 0.206758815608 0.208094584252
O 1.228934608692 0.459560077912 -1.846810631956
H -1.760214850697 -0.737452811877 -1.065621234178
H -1.38889966268 0.280959669882 -2.487148184946
H -0.701416159602 -1.335864977352 -2.377040786743
Na -0.449076554563 -0.209027473298 2.890790600478
