8
Coordinates from XML
C -0.989928525679 -0.460159847764 -1.85945836374
C 0.264880174055 0.123006760503 -1.142264495737
O 0.203108533972 0.206758815608 0.135202926054
O 1.228934608692 0.459560077912 -1.919702290154
H -1.760214850697 -0.737452811877 -1.138512892376
H -1.38889966268 0.280959669882 -2.560039843144
H -0.701416159602 -1.335864977352 -2.449932444941
Na -0.449076554563 -0.209027473298 3.07789894228
