8
Coordinates from XML
C 0.485530165837 1.008260564601 -0.395694264686
C -0.130325575521 -0.270055227574 -1.04038461791
O -0.288772605549 -0.246679701307 -2.312037589218
O -0.414774234591 -1.212155205801 -0.216603576633
H 0.715363106558 1.758079233889 -1.153944596491
H -0.216065813162 1.424371241862 0.334966739748
H 1.395999332787 0.741570994986 0.150822953186
Na 0.220993482337 0.457627414379 2.538160721142
