8
Coordinates from XML
C 0.485530165837 1.008260564601 -0.423729517839
C -0.130325575521 -0.270055227574 -1.068419871063
O -0.288772605549 -0.246679701307 -2.340072842371
O -0.414774234591 -1.212155205801 -0.244638829786
H 0.715363106558 1.758079233889 -1.181979849644
H -0.216065813162 1.424371241862 0.306931486595
H 1.395999332787 0.741570994986 0.122787700033
Na 0.220993482337 0.457627414379 2.610125467989
