8
Coordinates from XML
C 0.485530165837 1.008260564601 -0.485407074775
C -0.130325575521 -0.270055227574 -1.130097428
O -0.288772605549 -0.246679701307 -2.401750399308
O -0.414774234591 -1.212155205801 -0.306316386723
H 0.715363106558 1.758079233889 -1.243657406581
H -0.216065813162 1.424371241862 0.245253929658
H 1.395999332787 0.741570994986 0.061110143096
Na 0.220993482337 0.457627414379 2.768447911053
