8
Coordinates from XML
C 0.485530165837 1.008260564601 -0.513442327928
C -0.130325575521 -0.270055227574 -1.158132681153
O -0.288772605549 -0.246679701307 -2.429785652461
O -0.414774234591 -1.212155205801 -0.334351639876
H 0.715363106558 1.758079233889 -1.271692659734
H -0.216065813162 1.424371241862 0.217218676505
H 1.395999332787 0.741570994986 0.033074889943
Na 0.220993482337 0.457627414379 2.8404126579
