8
Coordinates from XML
C 0.097776994954 -1.161062404204 -0.380278160422
C -0.01850957218 0.314728463801 -0.867632198516
O 1.081419181482 0.910760662643 -1.146299582328
O -1.215301589949 0.773378945528 -0.934019052665
H 1.138496999415 -1.487564620521 -0.363162138951
H -0.334408430524 -1.250998425955 0.621908342618
H -0.484989497434 -1.812432647855 -1.039716194639
Na 0.037783440824 -0.53045571808 2.132971573585
