8
Coordinates from XML
C 0.097776994954 -1.161062404204 -0.475598021142
C -0.01850957218 0.314728463801 -0.962952059236
O 1.081419181482 0.910760662643 -1.241619443048
O -1.215301589949 0.773378945528 -1.029338913385
H 1.138496999415 -1.487564620521 -0.458481999672
H -0.334408430524 -1.250998425955 0.526588481898
H -0.484989497434 -1.812432647855 -1.135036055359
Na 0.037783440824 -0.53045571808 2.377651712865
