8
Coordinates from XML
C 0.097776994954 -1.161062404204 -0.492419173034
C -0.01850957218 0.314728463801 -0.979773211128
O 1.081419181482 0.910760662643 -1.25844059494
O -1.215301589949 0.773378945528 -1.046160065277
H 1.138496999415 -1.487564620521 -0.475303151563
H -0.334408430524 -1.250998425955 0.509767330006
H -0.484989497434 -1.812432647855 -1.151857207251
Na 0.037783440824 -0.53045571808 2.420830560973
