8
Coordinates from XML
C -0.075040620354 -0.950325467457 -0.120148759239
C 0.025850251284 0.253448154391 -1.104905231465
O 0.924438826281 0.170821801209 -2.015105547129
O -0.80971832264 1.203672169395 -0.890480204545
H 0.652022706192 -1.724004576105 -0.370736746121
H 0.094783892614 -0.601152168376 0.903808348692
H -1.086939706711 -1.367192534678 -0.152406893594
Na -0.03922899619 -0.430676088803 2.644289280943
