8
Coordinates from XML
C -0.075040620354 -0.950325467457 -0.148184012392
C 0.025850251284 0.253448154391 -1.132940484618
O 0.924438826281 0.170821801209 -2.043140800282
O -0.80971832264 1.203672169395 -0.918515457698
H 0.652022706192 -1.724004576105 -0.398771999274
H 0.094783892614 -0.601152168376 0.875773095539
H -1.086939706711 -1.367192534678 -0.180442146747
Na -0.03922899619 -0.430676088803 2.71625402779
