8
Coordinates from XML
C -0.075040620354 -0.950325467457 -0.176219265545
C 0.025850251284 0.253448154391 -1.160975737771
O 0.924438826281 0.170821801209 -2.071176053435
O -0.80971832264 1.203672169395 -0.946550710851
H 0.652022706192 -1.724004576105 -0.426807252427
H 0.094783892614 -0.601152168376 0.847737842386
H -1.086939706711 -1.367192534678 -0.2084773999
Na -0.03922899619 -0.430676088803 2.788218774637
