8
Coordinates from XML
C -0.075040620354 -0.950325467457 -0.310788480679
C 0.025850251284 0.253448154391 -1.295544952906
O 0.924438826281 0.170821801209 -2.20574526857
O -0.80971832264 1.203672169395 -1.081119925986
H 0.652022706192 -1.724004576105 -0.561376467561
H 0.094783892614 -0.601152168376 0.713168627251
H -1.086939706711 -1.367192534678 -0.343046615035
Na -0.03922899619 -0.430676088803 3.133649559502
