8
Coordinates from XML
C -0.075040620354 -0.950325467457 -0.394894240138
C 0.025850251284 0.253448154391 -1.379650712365
O 0.924438826281 0.170821801209 -2.289851028029
O -0.80971832264 1.203672169395 -1.165225685445
H 0.652022706192 -1.724004576105 -0.64548222702
H 0.094783892614 -0.601152168376 0.629062867792
H -1.086939706711 -1.367192534678 -0.427152374494
Na -0.03922899619 -0.430676088803 3.349543800043
