8
Coordinates from XML
C 1.005917910277 0.966178814492 -1.988765134339
C -0.074867374882 -0.080318383027 -2.434847553874
O 0.327383339163 -1.29844724925 -2.580368725484
O -1.262347705302 0.401183774708 -2.610922063182
H 1.982253247948 0.487846905681 -1.843662597788
H 1.08544029318 1.753230411519 -2.75342940004
H 0.681576514643 1.448104079744 -1.054583921549
Br 4.3850001e-05 4.1538238e-05 1.796965191702
