8
Coordinates from XML
C -0.18032338204 1.318773598497 -2.387563531908
C 0.008403593962 -0.103320618476 -3.023388121424
O -1.041293159532 -0.646842494584 -3.542561193683
O 1.209320854159 -0.578576996588 -2.953493879245
H -1.215358490038 1.665309143775 -2.495740672541
H 0.090593714023 1.27806361722 -1.321996973926
H 0.505705461013 2.02825993468 -2.873503246078
Br -8.207196e-06 5.7128578e-05 2.224817089453
