8
Coordinates from XML
C -1.219330452791 -0.784883423414 -3.014261278284
C 0.095684358629 0.062455342306 -2.891803922826
O 0.646301286852 0.435813090117 -3.998259965137
O 0.486730485109 0.293205161488 -1.680691399656
H -1.499861771699 -0.92863839919 -4.064843754216
H -1.067270583113 -1.761601131185 -2.531161101961
H -2.031707272703 -0.275324102022 -2.475246398163
Br -5.2809374e-05 -3.3939562e-05 2.164887957671
