8
Coordinates from XML
C 1.311837963736 0.255544189109 -3.081179831213
C -0.100636167743 -0.019159391772 -2.455322409267
O -0.160291571995 -0.070733510144 -1.166679197932
O -1.058760627264 -0.166978623399 -3.311536804552
H 2.071081879569 0.385396357808 -2.300299595044
H 1.58819143743 -0.585190938838 -3.734845393423
H 1.261935708983 1.156994198834 -3.709703088918
Br 5.6978479e-05 1.1125125e-05 1.873934700332
