8
Coordinates from XML
C -0.419936852434 0.177428549901 -4.391267900481
C 0.030621239252 -0.019569540217 -2.901156528617
O -0.348949847825 -1.109868519057 -2.323234466693
O 0.739176540969 0.945619968464 -2.411958519008
H -1.00179010137 -0.682589986911 -4.744682339526
H -1.023315692288 1.094137231776 -4.469143655351
H 0.468876450304 0.315024789156 -5.024688794009
Br -1.8353058e-05 7.297966e-06 2.250402602103
