8
Coordinates from XML
C -0.087248741751 0.768853809831 -2.622768987718
C 0.077751258249 -0.018146190169 -3.969768987718
O -0.994248741751 -0.532146190169 -4.472768987718
O 1.285751258249 -0.066146190169 -4.430768987718
H -1.135248741751 0.782853809831 -2.299768987718
H 0.536751258249 0.297853809831 -1.848768987718
H 0.277751258249 1.798853809831 -2.755768987718
Br -0.053540559956 -0.029662940915 2.895146119019
