8
Coordinates from XML
C -0.08550737186 0.769819989254 -2.636763609831
C 0.07949262814 -0.017180010746 -3.983763609831
O -0.99250737186 -0.531180010746 -4.486763609831
O 1.28749262814 -0.065180010746 -4.444763609831
H -1.13350737186 0.783819989254 -2.313763609831
H 0.53849262814 0.298819989254 -1.862763609831
H 0.27949262814 1.799819989254 -2.769763609831
Br -0.054842716014 -0.030385427502 2.905610973183
