8
Coordinates from XML
C -0.082024632078 0.771752348101 -2.664752854058
C 0.082975367922 -0.015247651899 -4.011752854058
O -0.989024632078 -0.529247651899 -4.514752854058
O 1.290975367922 -0.063247651899 -4.472752854058
H -1.130024632078 0.785752348101 -2.341752854058
H 0.541975367922 0.300752348101 -1.890752854058
H 0.282975367922 1.801752348101 -2.797752854058
Br -0.057447028128 -0.031830400675 2.926540681511
