8
Coordinates from XML
C -0.080283262187 0.772718527524 -2.678747476171
C 0.084716737813 -0.014281472476 -4.025747476171
O -0.987283262187 -0.528281472476 -4.528747476171
O 1.292716737813 -0.062281472476 -4.486747476171
H -1.128283262187 0.786718527524 -2.355747476171
H 0.543716737813 0.301718527524 -1.904747476171
H 0.284716737813 1.802718527524 -2.811747476171
Br -0.058749184186 -0.032552887262 2.937005535674
