8
Coordinates from XML
C -0.078541892296 0.773684706948 -2.692742098284
C 0.086458107704 -0.013315293052 -4.039742098284
O -0.985541892296 -0.527315293052 -4.542742098284
O 1.294458107704 -0.061315293052 -4.500742098284
H -1.126541892296 0.787684706948 -2.369742098284
H 0.545458107704 0.302684706948 -1.918742098284
H 0.286458107704 1.803684706948 -2.825742098284
Br -0.060051340243 -0.033275373849 2.947470389838
