8
Coordinates from XML
C -0.076800522405 0.774650886371 -2.706736720397
C 0.088199477595 -0.012349113629 -4.053736720397
O -0.983800522405 -0.526349113629 -4.556736720397
O 1.296199477595 -0.060349113629 -4.514736720397
H -1.124800522405 0.788650886371 -2.383736720397
H 0.547199477595 0.303650886371 -1.932736720397
H 0.288199477595 1.804650886371 -2.839736720397
Br -0.0613534963 -0.033997860435 2.957935244002
