8
Coordinates from XML
C -0.07592983746 0.775133976083 -2.713734031454
C 0.08907016254 -0.011866023917 -4.060734031454
O -0.98292983746 -0.525866023917 -4.563734031454
O 1.29707016254 -0.059866023917 -4.521734031454
H -1.12392983746 0.789133976083 -2.390734031454
H 0.54807016254 0.304133976083 -1.939734031454
H 0.28907016254 1.805133976083 -2.846734031454
Br -0.062004574329 -0.034359103729 2.963167671084
