8
Coordinates from XML
C -0.074188467569 0.776100155506 -2.727728653567
C 0.090811532431 -0.010899844494 -4.074728653567
O -0.981188467569 -0.524899844494 -4.577728653567
O 1.298811532431 -0.058899844494 -4.535728653567
H -1.122188467569 0.790100155506 -2.404728653567
H 0.549811532431 0.305100155506 -1.953728653567
H 0.290811532431 1.806100155506 -2.860728653567
Br -0.063306730386 -0.035081590315 2.973632525248
