8
Coordinates from XML
C -0.073317782623 0.776583245218 -2.734725964624
C 0.091682217377 -0.010416754782 -4.081725964624
O -0.980317782623 -0.524416754782 -4.584725964624
O 1.299682217377 -0.058416754782 -4.542725964624
H -1.121317782623 0.790583245218 -2.411725964624
H 0.550682217377 0.305583245218 -1.960725964624
H 0.291682217377 1.806583245218 -2.867725964624
Br -0.063957808415 -0.035442833608 2.97886495233
