8
Coordinates from XML
C -0.071576412732 0.777549424641 -2.748720586737
C 0.093423587268 -0.009450575359 -4.095720586737
O -0.978576412732 -0.523450575359 -4.598720586737
O 1.301423587268 -0.057450575359 -4.556720586737
H -1.119576412732 0.791549424641 -2.425720586737
H 0.552423587268 0.306549424641 -1.974720586737
H 0.293423587268 1.807549424641 -2.881720586737
Br -0.065259964472 -0.036165320195 2.989329806493
