8
Coordinates from XML
C -0.070705727787 0.778032514353 -2.755717897794
C 0.094294272213 -0.008967485647 -4.102717897794
O -0.977705727787 -0.522967485647 -4.605717897794
O 1.302294272213 -0.056967485647 -4.563717897794
H -1.118705727787 0.792032514353 -2.432717897794
H 0.553294272213 0.307032514353 -1.981717897794
H 0.294294272213 1.808032514353 -2.888717897794
Br -0.065911042501 -0.036526563488 2.994562233575
