8
Coordinates from XML
C -0.069835042841 0.778515604065 -2.76271520885
C 0.095164957159 -0.008484395935 -4.10971520885
O -0.976835042841 -0.522484395935 -4.61271520885
O 1.303164957159 -0.056484395935 -4.57071520885
H -1.117835042841 0.792515604065 -2.43971520885
H 0.554164957159 0.307515604065 -1.98871520885
H 0.295164957159 1.808515604065 -2.89571520885
Br -0.06656212053 -0.036887806782 2.999794660657
