8
Coordinates from XML
C -0.061128193386 0.783346501182 -2.832688319416
C 0.103871806614 -0.003653498818 -4.179688319416
O -0.968128193386 -0.517653498818 -4.682688319416
O 1.311871806614 -0.051653498818 -4.640688319416
H -1.109128193386 0.797346501182 -2.509688319416
H 0.562871806614 0.312346501182 -2.058688319416
H 0.303871806614 1.813346501182 -2.965688319416
Br -0.073072900816 -0.040500239715 3.052118931476
