8
Coordinates from XML
C 0.576022023205 0.815318217048 -1.943216241753
C -0.314717114561 -0.46128108067 -1.86657922886
O 0.119460381719 -1.415156666676 -1.128768667716
O -1.393683266913 -0.414638309301 -2.559929866377
H 1.465103799424 0.711175337077 -1.319772067121
H 0.872012207785 0.99360505816 -2.982376542091
H -0.003179411239 1.686944380639 -1.621421230576
Br 0.188716945632 0.273709562326 1.402562307929
