8
Coordinates from XML
C 0.576022023205 0.815318217048 -2.275066389882
C -0.314717114561 -0.46128108067 -2.198429376988
O 0.119460381719 -1.415156666676 -1.460618815844
O -1.393683266913 -0.414638309301 -2.891780014506
H 1.465103799424 0.711175337077 -1.65162221525
H 0.872012207785 0.99360505816 -3.314226690219
H -0.003179411239 1.686944380639 -1.953271378705
Br 0.188716945632 0.273709562326 1.650712159801
