8
Coordinates from XML
C 0.576022023205 0.815318217048 -2.389497475443
C -0.314717114561 -0.46128108067 -2.31286046255
O 0.119460381719 -1.415156666676 -1.575049901406
O -1.393683266913 -0.414638309301 -3.006211100067
H 1.465103799424 0.711175337077 -1.766053300811
H 0.872012207785 0.99360505816 -3.428657775781
H -0.003179411239 1.686944380639 -2.067702464266
Br 0.188716945632 0.273709562326 1.736281074239
