9
Coordinates from XML
N -0.511994663484 0.053702821351 -0.42018929067
C 0.586311670897 -0.061508324285 -1.398877845717
H -1.08503516417 -0.800029232291 -0.397741458729
H -1.135793008662 0.839196421412 -0.64768750784
H -0.151912156333 0.209834616669 0.530538089042
H 0.141523514972 -0.225179013287 -2.382220070942
H 1.209107636339 -0.908168481577 -1.10383077577
H 1.154041169597 0.870631690383 -1.374965728289
Li 0.000113276462 -1.1884121e-05 4.003482928302
