9
Coordinates from XML
N 0.048658963926 0.042940205035 -1.554034481164
C -0.055709168387 -0.049171616749 -0.0850197075
H 1.006113057806 -0.15249484191 -1.874697139638
H -0.204495868229 0.981663269096 -1.889581273663
H -0.576239815873 -0.63013357703 -2.017059641283
H 0.62740386731 0.685689849412 0.345005566191
H 0.224127466529 -1.063235963709 0.206743840572
H -1.089598949332 0.167429165801 0.190533557507
Li -1.0762375e-05 -9.499961e-06 3.970919120228
