9
Coordinates from XML
N -0.361126491387 -0.165954584581 -1.524058606544
C 0.413542441022 0.190036390278 -0.319674875758
H -1.261257876464 -0.597569942487 -1.276653246015
H 0.150667785237 -0.834553179557 -2.114755269148
H -0.56290973683 0.663069772967 -2.098446312236
H 0.5943704052 -0.726997253401 0.244184214558
H -0.179947105545 0.897996695073 0.261980842816
H 1.352159286716 0.640898699051 -0.647539444607
Li 7.9897008e-05 3.6714976e-05 4.397503223473
