9
Coordinates from XML
N 0.684223652071 -0.065862099746 -0.836248739351
C -0.783550384108 0.075414952656 -0.891582934788
H 0.960075811769 -0.912659859002 -0.32187836607
H 1.12059165805 0.737922560066 -0.365724357403
H 1.090299159808 -0.130379678963 -1.779042069826
H -1.15184131713 0.138515804877 0.134071295985
H -1.184775257608 -0.803722187166 -1.399419030661
H -1.010539086092 0.987380093267 -1.447073071048
Li -0.000151383932 1.456989e-05 3.937945641651
