9
Coordinates from XML
N -0.63876014591 -0.17903238751 -1.115815526946
C 0.731490842675 0.205010656968 -0.725552963702
H -0.701349258764 -1.184308799971 -1.323757051182
H -0.946065615451 0.33024345401 -1.954911156558
H -1.312881499758 0.024486137415 -0.366109110874
H 1.395411922815 -0.03466973008 -1.558228555641
H 0.997473571656 -0.366511827262 0.165724909861
H 0.731848090681 1.276996964656 -0.519109730576
Li 0.000141326113 3.9607927e-05 4.26615420948
