9
Coordinates from XML
N 0.295630645333 -0.616109165034 -0.761900515021
C -0.338545528913 0.705545338553 -0.930517397821
H 0.805966354095 -0.89773843492 -1.609237613646
H -0.40315274857 -1.344684285644 -0.565024736837
H 0.967200599371 -0.612871078169 0.017138900943
H -1.036004684094 0.636918292375 -1.767432916489
H 0.450925624614 1.431036372181 -1.135844132256
H -0.861071928857 0.946019254719 -0.002663941177
Li -6.5407805e-05 0.000136313009 3.839485170583
