9
Coordinates from XML
N 0.278814019838 0.492495338571 -1.396717727044
C -0.319300564936 -0.563984248657 -0.557973710522
H -0.381393294074 1.265377792728 -1.553295997285
H 0.553400080582 0.128507154172 -2.318669519093
H 1.120233775658 0.888455362479 -0.957232170988
H -1.202747666156 -0.941603695888 -1.076154472822
H -0.587801130158 -0.117001503347 0.40112736959
H 0.426655167535 -1.350615472136 -0.429385439512
Li -6.1690372e-05 -0.000108962895 4.59436307779
