8
Coordinates from XML
C -0.034861564427 0.088240855594 -3.048166880821
C -0.110861564427 0.086240855594 -1.538166880821
O 0.871138435573 -0.574759144406 -0.984166880821
O -1.093861564427 0.442240855594 -0.919166880821
H 0.931138435573 0.477240855594 -3.379166880821
H -0.146861564427 -0.928759144406 -3.434166880821
H -0.823861564427 0.713240855594 -3.472166880821
K 0.137333172415 -0.006106512827 2.459869961284
