8
Coordinates from XML
C 0.05735464264 0.054659739198 -2.795077786306
C -0.01864535736 0.052659739198 -1.285077786306
O 0.96335464264 -0.608340260802 -0.731077786306
O -1.00164535736 0.408659739198 -0.666077786306
H 1.02335464264 0.443659739198 -3.126077786306
H -0.05464535736 -0.962340260802 -3.181077786306
H -0.73164535736 0.679659739198 -3.219077786306
K -0.002334831044 0.04475447604 2.076548529483
