8
Coordinates from XML
C 0.114440866063 0.033871429048 -2.63840358494
C 0.038440866063 0.031871429048 -1.12840358494
O 1.020440866063 -0.629128570952 -0.57440358494
O -0.944559133937 0.387871429048 -0.50940358494
H 1.080440866063 0.422871429048 -2.96940358494
H 0.002440866063 -0.983128570952 -3.02440358494
H -0.674559133937 0.658871429048 -3.06240358494
K -0.088795976043 0.0762398501 1.839254309796
