8
Coordinates from XML
C -1.38717346388 0.439102458261 -2.493985684369
C 0.108631524335 -0.034912906622 -2.483048905281
O 0.658852673513 -0.180983095407 -1.324282246283
O 0.630026788384 -0.226748963208 -3.651082296023
H -1.768237418259 0.566794493152 -1.473411405062
H -1.461891049915 1.389978840869 -3.042380480424
H -1.998673399264 -0.299419037772 -3.033242274002
K -8.4598287e-05 2.6735098e-05 3.770510174067
