8
Coordinates from XML
C -1.06910446254 0.684155326705 -1.706550531957
C 0.087871410051 -0.051722212895 -2.469527477222
O 1.285441345082 0.14461967651 -2.028964092183
O -0.292498931873 -0.78028058826 -3.468265276916
H -0.677617822641 1.269191697968 -0.865386155771
H -1.601088332764 1.345821760386 -2.406319177557
H -1.79413143916 -0.058506535663 -1.341950639063
K -6.479906e-05 4.1910103e-05 3.662136417693
