8
Coordinates from XML
C 1.196476912302 -0.827920060955 -1.965126539925
C -0.092658583741 0.066590201582 -1.950166422639
O -0.405023503278 0.609193590948 -0.821082855336
O -0.706824883543 0.159705952645 -3.084664245007
H 1.673303566664 -0.84965622383 -0.977578701287
H 0.925261370802 -1.849193149118 -2.271604719326
H 1.901475204976 -0.437174414169 -2.713751337393
K 7.3067299e-05 -5.0327963e-05 2.963403953917
