8
Coordinates from XML
C -0.435497999631 -1.306961889973 -2.727100998657
C 0.036599649642 0.103659502418 -2.227587396308
O 0.773352328755 0.785953997832 -3.039061175558
O -0.368797715899 0.428139377255 -1.042968519747
H -0.069474128268 -1.509482357275 -3.741053087566
H -0.065886981697 -2.07860358475 -2.035405794605
H -1.534582586839 -1.349864765129 -2.70931746683
K -2.6312478e-05 -7.958415e-05 3.42113641215
