8
Coordinates from XML
C -0.036414617803 0.100709236943 -2.835312752679
C -0.112414617803 0.098709236943 -1.325312752679
O 0.869585382197 -0.562290763057 -0.771312752679
O -1.095414617803 0.454709236943 -0.706312752679
H 0.929585382197 0.489709236943 -3.166312752679
H -0.148414617803 -0.916290763057 -3.221312752679
H -0.825414617803 0.725709236943 -3.259312752679
K 0.139685382197 -0.024990763057 2.137487247321
