8
Coordinates from XML
C 0.079310882418 0.046664235294 -2.734818478089
C 0.003310882418 0.044664235294 -1.224818478089
O 0.985310882418 -0.616335764706 -0.670818478089
O -0.979689117582 0.400664235294 -0.605818478089
H 1.045310882418 0.435664235294 -3.065818478089
H -0.032689117582 -0.970335764706 -3.120818478089
H -0.709689117582 0.671664235294 -3.158818478089
K -0.035589117582 0.056864235294 1.985281521911
