52
Coordinates from XML
K 0.0 0.0 -1.405800436377
Cl 0.0 0.0 1.566399563623
K 0.0 0.0 -1.506695204539
Cl 0.0 0.0 1.678820584935
K 0.0 0.0 -1.58068470119
Cl 0.0 0.0 1.761262667231
K 0.0 0.0 -1.627768926332
Cl 0.0 0.0 1.81372581051
K 0.0 0.0 -1.647947879964
Cl 0.0 0.0 1.836210014773
K 0.0 0.0 -1.641221562087
Cl 0.0 0.0 1.828715280019
K 0.0 0.0 -1.6075899727
Cl 0.0 0.0 1.791241606248
K 0.0 0.0 -1.547053111803
Cl 0.0 0.0 1.72378899346
K 0.0 0.0 -1.459610979397
Cl 0.0 0.0 1.626357441656
K 0.0 0.0 -1.345263575481
Cl 0.0 0.0 1.498946950835
K 0.0 0.0 -1.533600476048
Cl 0.0 0.0 1.708799523952
K 0.0 0.0 -1.725300535554
Cl 0.0 0.0 1.922399464446
K 0.0 0.0 -1.853100575225
Cl 0.0 0.0 2.064799424775
K 0.0 0.0 -1.91700059506
Cl 0.0 0.0 2.13599940494
K 0.0 0.0 1.597500495883
Cl 0.0 0.0 -1.779999504117
K 0.0 0.0 2.300400714072
Cl 0.0 0.0 -2.563199285928
K 0.0 0.0 -1.499694343074
Cl 0.0 0.0 1.67101994264
K 0.0 0.0 -1.559682116797
Cl 0.0 0.0 1.737860740346
K 0.0 0.0 -1.585763757546
Cl 0.0 0.0 1.766921956739
K 0.0 0.0 -1.577939265322
Cl 0.0 0.0 1.758203591821
K 0.0 0.0 -1.536208640123
Cl 0.0 0.0 1.711705645591
K 0.0 0.0 -1.460571881951
Cl 0.0 0.0 1.627428118049
K 0.0 0.0 -1.351028990804
Cl 0.0 0.0 1.505371009196
K 0.0 0.0 1.609237234221
Cl 0.0 0.0 -1.793077051494
K 0.0 0.0 2.091747588079
Cl 0.0 0.0 -2.330709554778
K 0.0 0.0 2.608164074912
Cl 0.0 0.0 -2.906121639374
