11
Coordinates from XML
N -0.260632648878 -0.043552722262 -0.782392607501
C 0.298434379727 0.049875298222 -2.144779102779
H -1.241666342684 0.264203920184 -0.757969654211
H 0.264378490187 0.543436074479 -0.120813083665
H -0.230449139037 -1.009515182182 -0.430363373264
H 0.238201297827 1.09335207985 -2.459603993866
H -0.298780508769 -0.591660672207 -2.795568612224
H 1.335480020721 -0.288734427832 -2.104117426516
O 0.02567626649 -0.030544736483 2.470448631961
H 0.422628617943 0.079004018565 3.3396721193
H -0.829379136092 0.405961469571 2.529305752113
