11
Coordinates from XML
N -0.649621 -0.0385079 -1.37442
C 0.743855 0.0441161 -1.85273
H -1.22712 0.714655 -1.77063
H -0.699473 0.039596 -0.350071
H -1.08392 -0.932819 -1.63807
H 1.14645 1.01035 -1.54306
H 0.729333 -0.0447009 -2.94069
H 1.30184 -0.777306 -1.3992
O 0.00819707 0.0643528 2.85156
H 0.319443 -0.649137 3.41652
H -0.447549 -0.372205 2.12573
