11
Coordinates from XML
N 0.544063203836 0.094272016005 -2.058034390264
C -0.622984528 -0.107932705736 -1.177980674788
H 1.377058545879 0.365743176385 -1.519369458033
H 0.367968067229 0.834821608929 -2.749740117639
H 0.776255642389 -0.763711596613 -2.575595876426
H -0.817465715439 0.83295512144 -0.659816902988
H -0.374438275051 -0.901539100139 -0.470750400473
H -1.469404703146 -0.392590408127 -1.805926898261
O -0.03371573599 0.047828345762 2.961749374347
H 0.101158249786 -0.851285697534 3.275635524263
H 0.432326710823 0.091824166088 2.121517040071
