11
Coordinates from XML
N 0.124361560951 0.080322220136 -0.493887900449
C -0.142411407075 -0.091979290501 -1.934903539838
H 0.253524167373 -0.8262186723 -0.025658927144
H -0.652703416914 0.563334890155 -0.024048788863
H 0.97550056956 0.635245773796 -0.334071325534
H -1.052788700252 -0.685535610452 -2.037327214409
H 0.713910717505 -0.607609160124 -2.373764869312
H -0.269398726711 0.900295310901 -2.371983528015
O -0.040270377091 0.051619804988 2.075105132106
H 0.921439816822 0.059576099504 2.06199901513
H -0.282619180644 -0.879175802507 2.072247775687
