11
Coordinates from XML
N 0.0653069 0.640529 -1.85402
C -0.0747816 -0.733433 -1.33442
H 0.636384 1.222 -1.22672
H -0.8501 1.09893 -1.9529
H 0.516294 0.647433 -2.7784
H -0.557255 -0.673254 -0.357081
H 0.925416 -1.16319 -1.2527
H -0.687585 -1.29672 -2.04079
O -0.0293128 0.0520708 2.89481
H 0.0188465 -0.838419 3.25513
H 0.446229 0.00993302 2.05982
