11
Coordinates from XML
N -0.632567 -0.114296 -1.6265
C 0.724327 0.130878 -1.10104
H -0.775499 0.356688 -2.52954
H -1.35322 0.231919 -0.979454
H -0.802814 -1.11835 -1.77076
H 0.842191 1.2082 -0.970357
H 1.43949 -0.256868 -1.82903
H 0.812546 -0.392344 -0.146983
O -0.0150132 -0.0634178 2.46432
H -0.411758 0.677855 2.93147
H 0.652013 0.329116 1.89325
