11
Coordinates from XML
N -0.0200856 -0.103029 -0.651323
C 0.0229887 0.117961 -2.10964
H 0.170247 -1.08582 -0.415437
H -0.942295 0.135332 -0.263258
H 0.67894 0.473142 -0.164178
H -0.737614 -0.518026 -2.56636
H 1.02155 -0.151566 -2.45892
H -0.185658 1.17359 -2.29372
O -0.0587473 -0.00378553 2.34007
H 0.388985 0.787465 2.65404
H 0.543562 -0.72706 2.53811
