11
Coordinates from XML
N -0.024253529351 -0.146153692909 -0.947227916748
C 0.027774509854 0.167370392071 -2.388191979893
H 0.325995195317 0.637257556031 -0.380367805343
H 0.54769116519 -0.970867194225 -0.722268104487
H -0.986125863456 -0.3438349975 -0.641216781822
H 1.068850643038 0.366355472229 -2.649251269689
H -0.595398631344 1.04682260871 -2.561339445189
H -0.354906142086 -0.698235063852 -2.932302532361
O -0.047520486771 0.04270650173 2.895265969591
H 0.343563087098 -0.129228807891 2.033515740374
H 0.410795857377 -0.548192730086 3.500167446302
