11
Coordinates from XML
N -0.667195 0.0487227 -1.31876
C 0.763974 -0.0557709 -0.974932
H -0.964472 1.03061 -1.39127
H -1.25746 -0.40154 -0.606914
H -0.870054 -0.403413 -2.22006
H 0.913573 0.439893 -0.0139302
H 1.334 0.437951 -1.76428
H 1.01602 -1.11617 -0.91323
O -0.0359538 0.0495576 2.08455
H 0.921442 -0.0388686 2.11092
H -0.348695 -0.747901 1.64709
