11
Coordinates from XML
N -0.667195005248 0.048722733576 -1.318761806691
C 0.763973642292 -0.055770922563 -0.974931793276
H -0.964472212401 1.030612348878 -1.391265499487
H -1.257463346824 -0.401539620002 -0.606914134866
H -0.870053541968 -0.40341318655 -2.220061215219
H 0.913572614271 0.439892908296 -0.013930209323
H 1.333996754911 0.437951464394 -1.76428144058
H 1.016023527781 -1.116165794383 -0.913229677875
O -0.035953787722 0.049557602448 2.084552164127
H 0.921442139178 -0.038868628146 2.110922808761
H -0.348695410571 -0.747900512103 1.647088105177
