11
Coordinates from XML
N -0.22517 0.63048 -1.16586
C 0.257835 -0.721949 -1.50501
H -0.390695 0.726849 -0.155387
H -1.10934 0.843988 -1.64601
H 0.456526 1.35104 -1.43791
H -0.50562 -1.43713 -1.19319
H 1.19345 -0.88703 -0.967306
H 0.413675 -0.75984 -2.58485
O 0.0494207 -0.0380272 2.37626
H -0.868435 -0.293521 2.24441
H 0.0846849 0.895175 2.14602
