11
Coordinates from XML
N 0.087310059775 -0.055313239523 -2.255906618862
C -0.099965799245 0.063338132699 -0.797060737866
H 0.960334866137 -0.549406651636 -2.48270416643
H 0.129390632045 0.869163672542 -2.704740301305
H -0.685212810892 -0.576030602526 -2.691774651832
H 0.747416236937 0.622521806243 -0.396007332448
H -0.136404089223 -0.945646367261 -0.38186976992
H -1.038152617552 0.593654395899 -0.622866205976
O -0.026871653454 0.019922741956 2.860595337008
H 0.043810144555 0.514664988189 2.038795018669
H 0.382449371935 -0.830724384623 2.676265919341
