11
Coordinates from XML
N -0.512373164234 0.144949734991 -1.91059015519
C 0.586710103852 -0.165986805925 -0.976397382077
H -0.390326290815 -0.34201991135 -2.808199682897
H -0.561267075809 1.152878547412 -2.109509496894
H -1.422954399161 -0.139032042522 -1.525732695033
H 1.520548979253 0.157500891944 -1.43995664918
H 0.585645527938 -1.244371167652 -0.806553203309
H 0.400061677253 0.377781544206 -0.048360784608
O 0.025783910645 -0.049448154091 2.659404299638
H 0.490687852872 0.699532372093 2.274678337557
H -0.898370126135 0.084901927504 2.429163247959
