11
Coordinates from XML
N 0.442557 -0.319655 -2.05911
C -0.506765 0.366031 -1.16134
H 0.110063 -0.312224 -3.03232
H 0.57487 -1.30207 -1.78481
H 1.36609 0.132879 -2.04412
H -1.46202 -0.158776 -1.22178
H -0.603593 1.39827 -1.50319
H -0.0991248 0.324185 -0.14948
O -0.00761227 0.0637145 2.90617
H -0.694155 -0.573771 3.12387
H 0.813618 -0.436571 2.9266
