11
Coordinates from XML
N 0.610988564045 0.130469369547 -1.007303643902
C -0.699615027575 -0.149407193025 -1.624854480153
H 1.325969373506 0.3293063584 -1.719345801339
H 0.941793278151 -0.669239181553 -0.451502884255
H 0.563692732663 0.944552708666 -0.38044598757
H -0.583758821491 -1.018936925338 -2.274532796041
H -0.994032541536 0.732130600343 -2.197541529367
H -1.410901066916 -0.351359347744 -0.821697535688
O -0.014104428304 -0.060735545827 2.284640290139
H 0.807641173406 0.251391864825 2.675065975246
H -0.585649455988 0.712249840957 2.253794818058
