11
Coordinates from XML
N 0.064935131061 0.144736060598 -0.697782369226
C -0.074358572001 -0.165742249913 -2.133603452435
H 0.736019323964 -0.486847705962 -0.241180034744
H -0.833045008199 0.05060158437 -0.205186815166
H 0.397871283571 1.107090299308 -0.553051800274
H -0.428788269973 -1.194584657735 -2.219913469596
H 0.906891252341 -0.048310830406 -2.597413385427
H -0.795731079072 0.534977832658 -2.558322950367
O -0.06028315097 0.013765025876 2.454277396351
H 0.56153866557 -0.621126603077 2.822206490009
H 0.395124506258 0.402190184194 1.701382096774
