11
Coordinates from XML
N 0.0649351 0.144736 -0.697782
C -0.0743586 -0.165742 -2.1336
H 0.736019 -0.486848 -0.24118
H -0.833045 0.0506016 -0.205187
H 0.397871 1.10709 -0.553052
H -0.428788 -1.19458 -2.21991
H 0.906891 -0.0483108 -2.59741
H -0.795731 0.534978 -2.55832
O -0.0602832 0.013765 2.45428
H 0.561539 -0.621127 2.82221
H 0.395125 0.40219 1.70138
