11
Coordinates from XML
N -0.644535 -0.212245 -1.36488
C 0.738032 0.243031 -1.12277
H -1.01469 -0.731773 -0.558151
H -0.696732 -0.833157 -2.18318
H -1.27554 0.581371 -1.53787
H 1.35458 -0.64047 -0.947055
H 0.726592 0.894359 -0.246757
H 1.07155 0.784401 -2.01016
O -0.00719203 0.0574166 2.25868
H -0.700481 -0.52517 1.93454
H 0.816628 -0.385539 2.03455
