11
Coordinates from XML
N 0.166543271727 -0.082757816232 -0.841571926177
C -0.19069214242 0.094765676637 -2.262223174147
H 0.425515830494 0.812021511782 -0.405635109694
H 0.964672059111 -0.722345713737 -0.732954385627
H -0.618397987146 -0.473323284147 -0.30375696228
H 0.678583257519 0.509731267889 -2.77578949619
H -1.039143457952 0.780036712509 -2.310129150479
H -0.454142525345 -0.884997398097 -2.665251452465
O 0.021584368515 -0.061587636177 2.671036386645
H 0.547550856051 0.743539393125 2.68688853718
H -0.890669505434 0.234285399016 2.744341137587
