11
Coordinates from XML
N 0.070072447459 -0.004416324509 -2.109022006353
C -0.080217543731 0.005052767807 -0.641130676983
H 0.637004674497 -0.803183859301 -2.422543959824
H 0.530296118691 0.852188339889 -2.444137854038
H -0.842639896751 -0.06936249728 -2.578763713432
H 0.917473670978 0.075111008023 -0.20376285344
H -0.572200703353 -0.924908533232 -0.349779412671
H -0.688065473305 0.871393228544 -0.373271235108
O 0.060574387151 0.024733570473 2.533316261585
H -0.313986409081 -0.654704804869 1.964818878971
H -0.647716041849 0.262126925147 3.139196310229
