11
Coordinates from XML
N 0.107046 0.338096 -1.04393
C -0.122566 -0.387157 -2.30832
H 0.721451 -0.193424 -0.413275
H -0.775626 0.509191 -0.544438
H 0.550177 1.25117 -1.2108
H -0.592105 -1.3421 -2.06499
H 0.846521 -0.537099 -2.78806
H -0.777975 0.225419 -2.93038
O 0.0385163 -0.0298486 2.95027
H -0.584463 0.685282 3.11029
H -0.02723 -0.212543 2.00824
