11
Coordinates from XML
N 0.185636 -0.160559 -0.918796
C -0.212566 0.183843 -2.29727
H -0.141896 -1.09986 -0.657703
H -0.206097 0.503955 -0.238467
H 1.20834 -0.148055 -0.809952
H -1.30258 0.153369 -2.34746
H 0.232107 -0.554174 -2.96762
H 0.162529 1.18618 -2.51266
O 0.0625476 0.0191971 2.77669
H -0.720023 0.577834 2.80178
H -0.273355 -0.882051 2.78326
