11
Coordinates from XML
N -0.0826392 0.0172524 -0.796953
C -0.117639 0.0762524 -2.29495
H 0.172361 -0.932748 -0.481953
H -1.00864 0.256252 -0.406953
H 0.613361 0.686252 -0.428953
H -0.857639 -0.634748 -2.67295
H 0.869361 -0.178748 -2.68795
H -0.387639 1.08725 -2.60995
O 0.160361 -0.0797476 2.57105
H 0.330361 0.574252 3.43905
H 0.272361 -0.739748 3.44405
