11
Coordinates from XML
N -0.00363662 -0.0058652 -0.430403
C -0.0566366 0.0411348 -1.9274
H 0.257363 -0.952865 -0.110403
H -0.926637 0.234135 -0.0324031
H 0.694363 0.668135 -0.0754031
H -0.797637 -0.674865 -2.2904
H 0.927363 -0.213865 -2.3314
H -0.333637 1.04813 -2.2484
O 0.0373634 -0.0268652 1.9176
H 0.193363 0.610135 2.8016
H 0.117363 -0.700865 2.7826
