11
Coordinates from XML
N -0.701589892122 -0.555339824597 -0.821106699391
C -0.077589892122 0.114660175403 -1.970106699391
H -0.596589892122 -1.574339824597 -0.856106699391
H -1.698589892122 -0.334339824597 -0.730106699391
H -0.255589892122 -0.248339824597 0.075893300609
H -0.575589892122 -0.237339824597 -2.875106699391
H 0.981410107878 -0.149339824597 -1.978106699391
H -0.211589892122 1.191660175403 -1.844106699391
O 0.702239228262 0.412399924549 2.347084723349
H 0.811239228262 1.298399924549 2.755084723349
H 1.072239228262 -0.140600075451 3.069084723349
