11
Coordinates from XML
N -0.703258 -0.556491 -0.825062
C -0.079258 0.113509 -1.97406
H -0.598258 -1.57549 -0.860062
H -1.70026 -0.335491 -0.734062
H -0.257258 -0.249491 0.0719379
H -0.577258 -0.238491 -2.87906
H 0.979742 -0.150491 -1.98206
H -0.213258 1.19051 -1.84806
O 0.705208 0.414448 2.35412
H 0.814208 1.30045 2.76212
H 1.07521 -0.138552 3.07612
