11
Coordinates from XML
N -0.703257990966 -0.556490530071 -0.825062072753
C -0.079257990966 0.113509469929 -1.974062072753
H -0.598257990966 -1.575490530071 -0.860062072753
H -1.700257990966 -0.335490530071 -0.734062072753
H -0.257257990966 -0.249490530071 0.071937927247
H -0.577257990966 -0.238490530071 -2.879062072753
H 0.979742009034 -0.150490530071 -1.982062072753
H -0.213257990966 1.190509469929 -1.848062072753
O 0.705207630935 0.414447619274 2.354123359517
H 0.814207630935 1.300447619274 2.762123359517
H 1.075207630935 -0.138552380726 3.076123359517
