11
Coordinates from XML
N -0.706594188656 -0.55879194102 -0.832972819479
C -0.082594188656 0.11120805898 -1.981972819479
H -0.601594188656 -1.57779194102 -0.867972819479
H -1.703594188656 -0.33779194102 -0.741972819479
H -0.260594188656 -0.25179194102 0.064027180521
H -0.580594188656 -0.24079194102 -2.886972819479
H 0.976405811344 -0.15279194102 -1.989972819479
H -0.216594188656 1.18820805898 -1.855972819479
O 0.71114443628 0.418543008724 2.368200631852
H 0.82014443628 1.304543008724 2.776200631852
H 1.08114443628 -0.134456991276 3.090200631852
