11
Coordinates from XML
N -0.708262 -0.559943 -0.836928
C -0.0842623 0.110057 -1.98593
H -0.603262 -1.57894 -0.871928
H -1.70526 -0.338943 -0.745928
H -0.262262 -0.252943 0.0600718
H -0.582262 -0.241943 -2.89093
H 0.974738 -0.153943 -1.99393
H -0.218262 1.18706 -1.85993
O 0.714113 0.420591 2.37524
H 0.823113 1.30659 2.78324
H 1.08411 -0.132409 3.09724
