11
Coordinates from XML
N -0.711598 -0.562244 -0.844839
C -0.0875985 0.107756 -1.99384
H -0.606598 -1.58124 -0.879839
H -1.7086 -0.341244 -0.753839
H -0.265598 -0.255244 0.0521611
H -0.585598 -0.244244 -2.89884
H 0.971402 -0.156244 -2.00184
H -0.221598 1.18476 -1.86784
O 0.72005 0.424686 2.38932
H 0.82905 1.31069 2.79732
H 1.09005 -0.128314 3.11132
