11
Coordinates from XML
N -0.714935 -0.564545 -0.85275
C -0.0909347 0.105455 -2.00175
H -0.609935 -1.58355 -0.88775
H -1.71193 -0.343545 -0.76175
H -0.268935 -0.257545 0.0442503
H -0.588935 -0.246545 -2.90675
H 0.968065 -0.158545 -2.00975
H -0.224935 1.18245 -1.87575
O 0.725986 0.428781 2.40339
H 0.834986 1.31478 2.81139
H 1.09599 -0.124219 3.12539
