11
Coordinates from XML
N -0.72160707826 -0.569148290289 -0.868571179743
C -0.09760707826 0.100851709711 -2.017571179743
H -0.61660707826 -1.588148290289 -0.903571179743
H -1.71860707826 -0.348148290289 -0.777571179743
H -0.27560707826 -0.262148290289 0.028428820257
H -0.59560707826 -0.251148290289 -2.922571179743
H 0.96139292174 -0.163148290289 -2.025571179743
H -0.23160707826 1.177851709711 -1.891571179743
O 0.737860060333 0.436972261249 2.431548357361
H 0.846860060333 1.322972261249 2.839548357361
H 1.107860060333 -0.116027738751 3.153548357361
