11
Coordinates from XML
N -0.724943 -0.57145 -0.876482
C -0.100943 0.0985503 -2.02548
H -0.619943 -1.59045 -0.911482
H -1.72194 -0.35045 -0.785482
H -0.278943 -0.26445 0.0205181
H -0.598943 -0.25345 -2.93048
H 0.958057 -0.16545 -2.03348
H -0.234943 1.17555 -1.89948
O 0.743797 0.441068 2.44563
H 0.852797 1.32707 2.85363
H 1.1138 -0.111932 3.16763
