11
Coordinates from XML
N -0.729948 -0.574902 -0.888348
C -0.105948 0.0950982 -2.03735
H -0.624948 -1.5939 -0.923348
H -1.72695 -0.353902 -0.797348
H -0.283948 -0.267902 0.00865195
H -0.603948 -0.256902 -2.94235
H 0.953052 -0.168902 -2.04535
H -0.239948 1.1721 -1.91135
O 0.752702 0.447211 2.46674
H 0.861702 1.33321 2.87474
H 1.1227 -0.105789 3.18874
