11
Coordinates from XML
N -0.731615671329 -0.576052523135 -0.892303419919
C -0.107615671329 0.093947476865 -2.041303419919
H -0.626615671329 -1.595052523135 -0.927303419919
H -1.728615671329 -0.355052523135 -0.801303419919
H -0.285615671329 -0.269052523135 0.004696580081
H -0.605615671329 -0.258052523135 -2.946303419919
H 0.951384328671 -0.170052523135 -2.049303419919
H -0.241615671329 1.170947476865 -1.915303419919
O 0.755670476368 0.449258429599 2.473780174367
H 0.864670476368 1.335258429599 2.881780174367
H 1.125670476368 -0.103741570401 3.195780174367
