11
Coordinates from XML
N -0.733284 -0.577203 -0.896259
C -0.109284 0.0927968 -2.04526
H -0.628284 -1.5962 -0.931259
H -1.73028 -0.356203 -0.805259
H -0.287284 -0.270203 0.000741207
H -0.607284 -0.259203 -2.95026
H 0.949716 -0.171203 -2.05326
H -0.243284 1.1698 -1.91926
O 0.758639 0.451306 2.48082
H 0.867639 1.33731 2.88882
H 1.12864 -0.101694 3.20282
