11
Coordinates from XML
N -0.73662 -0.579505 -0.90417
C -0.11262 0.0904954 -2.05317
H -0.63162 -1.5985 -0.93917
H -1.73362 -0.358505 -0.81317
H -0.29062 -0.272505 -0.00716954
H -0.61062 -0.261505 -2.95817
H 0.94638 -0.173505 -2.06117
H -0.24662 1.1675 -1.92717
O 0.764576 0.455402 2.4949
H 0.873576 1.3414 2.9029
H 1.13458 -0.0975985 3.2169
