11
Coordinates from XML
N -0.739956165554 -0.581806050507 -0.912080286732
C -0.115956165554 0.088193949493 -2.061080286732
H -0.634956165554 -1.600806050507 -0.947080286732
H -1.736956165554 -0.360806050507 -0.821080286732
H -0.293956165554 -0.274806050507 -0.015080286732
H -0.613956165554 -0.263806050507 -2.966080286732
H 0.943043834446 -0.175806050507 -2.069080286732
H -0.249956165554 1.165193949493 -1.935080286732
O 0.770512489731 0.459496903224 2.508973355206
H 0.879512489731 1.345496903224 2.916973355206
H 1.140512489731 -0.093503096776 3.230973355206
