11
Coordinates from XML
N -0.741624264399 -0.582956755981 -0.916035660095
C -0.117624264399 0.087043244019 -2.065035660095
H -0.636624264399 -1.601956755981 -0.951035660095
H -1.738624264399 -0.361956755981 -0.825035660095
H -0.295624264399 -0.275956755981 -0.019035660095
H -0.615624264399 -0.264956755981 -2.970035660095
H 0.941375735601 -0.176956755981 -2.073035660095
H -0.251624264399 1.164043244019 -1.939035660095
O 0.773480892404 0.461544597949 2.516011991373
H 0.882480892404 1.347544597949 2.924011991373
H 1.143480892404 -0.091455402051 3.238011991373
