11
Coordinates from XML
N -0.743292 -0.584107 -0.919991
C -0.119292 0.0858925 -2.06899
H -0.638292 -1.60311 -0.954991
H -1.74029 -0.363107 -0.828991
H -0.297292 -0.277107 -0.022991
H -0.617292 -0.266107 -2.97399
H 0.939708 -0.178107 -2.07699
H -0.253292 1.16289 -1.94299
O 0.776449 0.463592 2.52305
H 0.885449 1.34959 2.93105
H 1.14645 -0.0894077 3.24505
