11
Coordinates from XML
N -0.748297 -0.58756 -0.931857
C -0.124297 0.0824404 -2.08086
H -0.643297 -1.60656 -0.966857
H -1.7453 -0.36656 -0.840857
H -0.302297 -0.28056 -0.0348572
H -0.622297 -0.26956 -2.98586
H 0.934703 -0.18156 -2.08886
H -0.258297 1.15944 -1.95486
O 0.785355 0.469735 2.54417
H 0.894355 1.35574 2.95217
H 1.15535 -0.0832646 3.26617
