11
Coordinates from XML
N -0.749964758623 -0.588710283353 -0.935812526908
C -0.125964758623 0.081289716647 -2.084812526908
H -0.644964758623 -1.607710283353 -0.970812526908
H -1.746964758623 -0.367710283353 -0.844812526908
H -0.303964758623 -0.281710283353 -0.038812526908
H -0.623964758623 -0.270710283353 -2.989812526908
H 0.933035241377 -0.182710283353 -2.092812526908
H -0.259964758623 1.158289716647 -1.958812526908
O 0.788322905766 0.471783071574 2.551205172212
H 0.897322905766 1.357783071574 2.959205172212
H 1.158322905766 -0.081216928426 3.273205172212
