11
Coordinates from XML
N -0.753300956313 -0.591011694301 -0.943723273634
C -0.129300956313 0.078988305699 -2.092723273634
H -0.648300956313 -1.610011694301 -0.978723273634
H -1.750300956313 -0.370011694301 -0.852723273634
H -0.307300956313 -0.284011694301 -0.046723273634
H -0.627300956313 -0.273011694301 -2.997723273634
H 0.929699043687 -0.185011694301 -2.100723273634
H -0.263300956313 1.155988305699 -1.966723273634
O 0.794259711112 0.475878461023 2.565282444547
H 0.903259711112 1.361878461023 2.973282444547
H 1.164259711112 -0.077121538977 3.287282444547
