11
Coordinates from XML
N -0.754969055158 -0.592162399776 -0.947678646996
C -0.130969055158 0.077837600224 -2.096678646996
H -0.649969055158 -1.611162399776 -0.982678646996
H -1.751969055158 -0.371162399776 -0.856678646996
H -0.308969055158 -0.285162399776 -0.050678646996
H -0.628969055158 -0.274162399776 -3.001678646996
H 0.928030944842 -0.186162399776 -2.104678646996
H -0.264969055158 1.154837600224 -1.970678646996
O 0.797228113784 0.477926155748 2.572321080715
H 0.906228113784 1.363926155748 2.980321080715
H 1.167228113784 -0.075073844252 3.294321080715
