11
Coordinates from XML
N -0.756637 -0.593313 -0.951634
C -0.132637 0.0766869 -2.10063
H -0.651637 -1.61231 -0.986634
H -1.75364 -0.372313 -0.860634
H -0.310637 -0.286313 -0.054634
H -0.630637 -0.275313 -3.00563
H 0.926363 -0.187313 -2.10863
H -0.266637 1.15369 -1.97463
O 0.800197 0.479974 2.57936
H 0.909197 1.36597 2.98736
H 1.1702 -0.0730261 3.30136
