11
Coordinates from XML
N -0.758305252847 -0.594463810724 -0.955589393722
C -0.134305252847 0.075536189276 -2.104589393722
H -0.653305252847 -1.613463810724 -0.990589393722
H -1.755305252847 -0.373463810724 -0.864589393722
H -0.312305252847 -0.287463810724 -0.058589393722
H -0.632305252847 -0.276463810724 -3.009589393722
H 0.924694747153 -0.188463810724 -2.112589393722
H -0.268305252847 1.152536189276 -1.978589393722
O 0.803164919129 0.482021545198 2.58639835305
H 0.912164919129 1.368021545198 2.99439835305
H 1.173164919129 -0.070978454802 3.30839835305
