11
Coordinates from XML
N -0.690786966269 -0.547887636763 -0.79549094809
C -0.066786966269 0.122112363237 -1.94449094809
H -0.585786966269 -1.566887636763 -0.83049094809
H -1.687786966269 -0.326887636763 -0.70449094809
H -0.244786966269 -0.240887636763 0.10150905191
H -0.564786966269 -0.229887636763 -2.84949094809
H 0.992213033731 -0.141887636763 -1.95249094809
H -0.200786966269 1.199112363237 -1.81849094809
O 0.683015287144 0.399138663473 2.301501174835
H 0.792015287144 1.285138663473 2.709501174835
H 1.053015287144 -0.153861336527 3.023501174835
