11
Coordinates from XML
N -0.692321 -0.548946 -0.79913
C -0.0683215 0.121054 -1.94813
H -0.587321 -1.56795 -0.83413
H -1.68932 -0.327946 -0.70813
H -0.246321 -0.241946 0.0978705
H -0.566321 -0.230946 -2.85313
H 0.990679 -0.142946 -1.95613
H -0.202321 1.19805 -1.82213
O 0.685746 0.401022 2.30798
H 0.794746 1.28702 2.71598
H 1.05575 -0.151978 3.02998
