11
Coordinates from XML
N -0.693855979295 -0.550004735579 -0.802768150164
C -0.069855979295 0.119995264421 -1.951768150164
H -0.588855979295 -1.569004735579 -0.837768150164
H -1.690855979295 -0.329004735579 -0.711768150164
H -0.247855979295 -0.243004735579 0.094231849836
H -0.567855979295 -0.232004735579 -2.856768150164
H 0.989144020705 -0.144004735579 -1.959768150164
H -0.203855979295 1.196995264421 -1.825768150164
O 0.688476634053 0.402906067188 2.314451046572
H 0.797476634053 1.288906067188 2.722451046572
H 1.058476634053 -0.150093932812 3.036451046572
