11
Coordinates from XML
N -0.701529 -0.555297 -0.820961
C -0.0775285 0.114703 -1.96996
H -0.596529 -1.5743 -0.855961
H -1.69853 -0.334297 -0.729961
H -0.255529 -0.248297 0.0760388
H -0.575529 -0.237297 -2.87496
H 0.981471 -0.149297 -1.97796
H -0.211529 1.1917 -1.84396
O 0.70213 0.412325 2.34683
H 0.81113 1.29832 2.75483
H 1.07213 -0.140675 3.06883
