11
Coordinates from XML
N -0.701528511861 -0.55529748262 -0.820961155349
C -0.077528511861 0.11470251738 -1.969961155349
H -0.596528511861 -1.57429748262 -0.855961155349
H -1.698528511861 -0.33429748262 -0.729961155349
H -0.255528511861 -0.24829748262 0.076038844651
H -0.575528511861 -0.23729748262 -2.874961155349
H 0.981471488139 -0.14929748262 -1.977961155349
H -0.211528511861 1.19170251738 -1.843961155349
O 0.702130001324 0.412324576475 2.346825725915
H 0.811130001324 1.298324576475 2.754825725915
H 1.072130001324 -0.140675423525 3.068825725915
