11
Coordinates from XML
N -0.703063 -0.556356 -0.8246
C -0.079063 0.113644 -1.9736
H -0.598063 -1.57536 -0.8596
H -1.70006 -0.335356 -0.7336
H -0.257063 -0.249356 0.0724002
H -0.577063 -0.238356 -2.8786
H 0.979937 -0.150356 -1.9816
H -0.213063 1.19064 -1.8476
O 0.704861 0.414208 2.3533
H 0.813861 1.30021 2.7613
H 1.07486 -0.138792 3.0753
