11
Coordinates from XML
N -0.703063018374 -0.556356032029 -0.824599756386
C -0.079063018374 0.113643967971 -1.973599756386
H -0.598063018374 -1.575356032029 -0.859599756386
H -1.700063018374 -0.335356032029 -0.733599756386
H -0.257063018374 -0.249356032029 0.072400243614
H -0.577063018374 -0.238356032029 -2.878599756386
H 0.979936981626 -0.150356032029 -1.981599756386
H -0.213063018374 1.190643967971 -1.847599756386
O 0.704860674778 0.414208278332 2.353300661783
H 0.813860674778 1.300208278332 2.761300661783
H 1.074860674778 -0.138791721668 3.075300661783
