11
Coordinates from XML
N -0.704598 -0.557415 -0.828238
C -0.0805975 0.112585 -1.97724
H -0.599598 -1.57641 -0.863238
H -1.7016 -0.336415 -0.737238
H -0.258598 -0.250415 0.0687616
H -0.578598 -0.239415 -2.88224
H 0.978402 -0.151415 -1.98524
H -0.214598 1.18959 -1.85124
O 0.707591 0.416092 2.35978
H 0.816591 1.30209 2.76778
H 1.07759 -0.136908 3.08178
