11
Coordinates from XML
N -0.707667 -0.559532 -0.835516
C -0.0836665 0.110468 -1.98452
H -0.602667 -1.57853 -0.870516
H -1.70467 -0.338532 -0.744516
H -0.261667 -0.252532 0.0614844
H -0.581667 -0.241532 -2.88952
H 0.975333 -0.153532 -1.99252
H -0.217667 1.18747 -1.85852
O 0.713053 0.419859 2.37273
H 0.822053 1.30586 2.78073
H 1.08305 -0.133141 3.09473
