11
Coordinates from XML
N -0.709201044427 -0.560590229661 -0.839154160535
C -0.085201044427 0.109409770339 -1.988154160535
H -0.604201044427 -1.579590229661 -0.874154160535
H -1.706201044427 -0.339590229661 -0.748154160535
H -0.263201044427 -0.253590229661 0.057845839465
H -0.583201044427 -0.242590229661 -2.893154160535
H 0.973798955573 -0.154590229661 -1.996154160535
H -0.219201044427 1.186409770339 -1.862154160535
O 0.715783368595 0.421743085762 2.379200405257
H 0.824783368595 1.307743085762 2.787200405257
H 1.085783368595 -0.131256914238 3.101200405257
