11
Coordinates from XML
N -0.710736 -0.561649 -0.842793
C -0.0867356 0.108351 -1.99179
H -0.605736 -1.58065 -0.877793
H -1.70774 -0.340649 -0.751793
H -0.264736 -0.254649 0.0542072
H -0.584736 -0.243649 -2.89679
H 0.972264 -0.155649 -1.99979
H -0.220736 1.18535 -1.86579
O 0.718514 0.423627 2.38568
H 0.827514 1.30963 2.79368
H 1.08851 -0.129373 3.10768
