11
Coordinates from XML
N -0.712270057453 -0.562707328478 -0.846431362609
C -0.088270057453 0.107292671522 -1.995431362609
H -0.607270057453 -1.581707328478 -0.881431362609
H -1.709270057453 -0.341707328478 -0.755431362609
H -0.266270057453 -0.255707328478 0.050568637391
H -0.586270057453 -0.244707328478 -2.900431362609
H 0.970729942547 -0.156707328478 -2.003431362609
H -0.222270057453 1.184292671522 -1.869431362609
O 0.721244715503 0.425510489477 2.392150276994
H 0.830244715503 1.311510489477 2.800150276994
H 1.091244715503 -0.127489510523 3.114150276994
