11
Coordinates from XML
N -0.71227 -0.562707 -0.846431
C -0.0882701 0.107293 -1.99543
H -0.60727 -1.58171 -0.881431
H -1.70927 -0.341707 -0.755431
H -0.26627 -0.255707 0.0505686
H -0.58627 -0.244707 -2.90043
H 0.97073 -0.156707 -2.00343
H -0.22227 1.18429 -1.86943
O 0.721245 0.42551 2.39215
H 0.830245 1.31151 2.80015
H 1.09124 -0.12749 3.11415
