11
Coordinates from XML
N -0.713804563966 -0.563765877886 -0.850069963646
C -0.089804563966 0.106234122114 -1.999069963646
H -0.608804563966 -1.582765877886 -0.885069963646
H -1.710804563966 -0.342765877886 -0.759069963646
H -0.267804563966 -0.256765877886 0.046930036354
H -0.587804563966 -0.245765877886 -2.904069963646
H 0.969195436034 -0.157765877886 -2.007069963646
H -0.223804563966 1.183234122114 -1.873069963646
O 0.723975388957 0.427394191334 2.398625212863
H 0.832975388957 1.313394191334 2.806625212863
H 1.093975388957 -0.125605808666 3.120625212863
