11
Coordinates from XML
N -0.715339070479 -0.564824427294 -0.853708564683
C -0.091339070479 0.105175572706 -2.002708564683
H -0.610339070479 -1.583824427294 -0.888708564683
H -1.712339070479 -0.343824427294 -0.762708564683
H -0.269339070479 -0.257824427294 0.043291435317
H -0.589339070479 -0.246824427294 -2.907708564683
H 0.967660929521 -0.158824427294 -2.010708564683
H -0.225339070479 1.182175572706 -1.876708564683
O 0.726706062412 0.429277893191 2.405100148731
H 0.835706062412 1.315277893191 2.813100148731
H 1.096706062412 -0.123722106809 3.127100148731
