11
Coordinates from XML
N -0.716874 -0.565883 -0.857347
C -0.0928736 0.104117 -2.00635
H -0.611874 -1.58488 -0.892347
H -1.71387 -0.344883 -0.766347
H -0.270874 -0.258883 0.0396528
H -0.590874 -0.247883 -2.91135
H 0.966126 -0.159883 -2.01435
H -0.226874 1.18112 -1.88035
O 0.729437 0.431162 2.41158
H 0.838437 1.31716 2.81958
H 1.09944 -0.121838 3.13358
