11
Coordinates from XML
N -0.718408 -0.566942 -0.860986
C -0.0944081 0.103058 -2.00999
H -0.613408 -1.58594 -0.895986
H -1.71541 -0.345942 -0.769986
H -0.272408 -0.259942 0.0360142
H -0.592408 -0.248942 -2.91499
H 0.964592 -0.160942 -2.01799
H -0.228408 1.18006 -1.88399
O 0.732167 0.433045 2.41805
H 0.841167 1.31905 2.82605
H 1.10217 -0.119955 3.14005
