11
Coordinates from XML
N -0.719942590019 -0.568000075519 -0.864624367794
C -0.095942590019 0.101999924481 -2.013624367794
H -0.614942590019 -1.587000075519 -0.899624367794
H -1.716942590019 -0.347000075519 -0.773624367794
H -0.273942590019 -0.261000075519 0.032375632206
H -0.593942590019 -0.250000075519 -2.918624367794
H 0.963057409981 -0.162000075519 -2.021624367794
H -0.229942590019 1.178999924481 -1.887624367794
O 0.734898082774 0.434928998764 2.424524956337
H 0.843898082774 1.320928998764 2.832524956337
H 1.104898082774 -0.118071001236 3.146524956337
