11
Coordinates from XML
N -0.721477 -0.569059 -0.868263
C -0.0974771 0.100941 -2.01726
H -0.616477 -1.58806 -0.903263
H -1.71848 -0.348059 -0.777263
H -0.275477 -0.262059 0.028737
H -0.595477 -0.251059 -2.92226
H 0.961523 -0.163059 -2.02526
H -0.231477 1.17794 -1.89126
O 0.737629 0.436813 2.431
H 0.846629 1.32281 2.839
H 1.10763 -0.116187 3.153
