11
Coordinates from XML
N -0.723012 -0.570117 -0.871902
C -0.0990116 0.0998828 -2.0209
H -0.618012 -1.58912 -0.906902
H -1.72001 -0.349117 -0.780902
H -0.277012 -0.263117 0.0250984
H -0.597012 -0.252117 -2.9259
H 0.959988 -0.164117 -2.0289
H -0.233012 1.17688 -1.8949
O 0.740359 0.438696 2.43747
H 0.849359 1.3247 2.84547
H 1.11036 -0.114304 3.15947
