11
Coordinates from XML
N -0.723011603045 -0.570117174335 -0.871901569868
C -0.099011603045 0.099882825665 -2.020901569868
H -0.618011603045 -1.589117174335 -0.906901569868
H -1.720011603045 -0.349117174335 -0.780901569868
H -0.277011603045 -0.263117174335 0.025098430132
H -0.597011603045 -0.252117174335 -2.925901569868
H 0.959988396955 -0.164117174335 -2.028901569868
H -0.233011603045 1.176882825665 -1.894901569868
O 0.740359429683 0.438696402478 2.437474828074
H 0.849359429683 1.324696402478 2.845474828074
H 1.110359429683 -0.114303597522 3.159474828074
