11
Coordinates from XML
N -0.724546 -0.571176 -0.87554
C -0.100546 0.0988243 -2.02454
H -0.619546 -1.59018 -0.91054
H -1.72155 -0.350176 -0.78454
H -0.278546 -0.264176 0.0214598
H -0.598546 -0.253176 -2.92954
H 0.958454 -0.165176 -2.03254
H -0.234546 1.17582 -1.89854
O 0.74309 0.44058 2.44395
H 0.85209 1.32658 2.85195
H 1.11309 -0.11242 3.16595
