11
Coordinates from XML
N -0.724546109558 -0.571175723744 -0.875540170906
C -0.100546109558 0.098824276256 -2.024540170906
H -0.619546109558 -1.590175723744 -0.910540170906
H -1.721546109558 -0.350175723744 -0.784540170906
H -0.278546109558 -0.264175723744 0.021459829094
H -0.598546109558 -0.253175723744 -2.929540170906
H 0.958453890442 -0.165175723744 -2.032540170906
H -0.234546109558 1.175824276256 -1.898540170906
O 0.743090103137 0.440580104336 2.443949763942
H 0.852090103137 1.326580104336 2.851949763942
H 1.113090103137 -0.112419895664 3.165949763942
