11
Coordinates from XML
N -0.727615122584 -0.57329282256 -0.88281737298
C -0.103615122584 0.09670717744 -2.03181737298
H -0.622615122584 -1.59229282256 -0.91781737298
H -1.724615122584 -0.35229282256 -0.79181737298
H -0.281615122584 -0.26629282256 0.01418262702
H -0.601615122584 -0.25529282256 -2.93681737298
H 0.955384877416 -0.16729282256 -2.03981737298
H -0.237615122584 1.17370717744 -1.90581737298
O 0.748551450045 0.444347508051 2.456899635679
H 0.857551450045 1.330347508051 2.864899635679
H 1.118551450045 -0.108652491949 3.178899635679
