11
Coordinates from XML
N -0.72915 -0.574351 -0.886456
C -0.10515 0.0956486 -2.03546
H -0.62415 -1.59335 -0.921456
H -1.72615 -0.353351 -0.795456
H -0.28315 -0.267351 0.010544
H -0.60315 -0.256351 -2.94046
H 0.95385 -0.168351 -2.04346
H -0.23915 1.17265 -1.90946
O 0.751282 0.446231 2.46337
H 0.860282 1.33223 2.87137
H 1.12128 -0.106769 3.18537
