11
Coordinates from XML
N -0.732218642124 -0.576468470785 -0.893733176091
C -0.108218642124 0.093531529215 -2.042733176091
H -0.627218642124 -1.595468470785 -0.928733176091
H -1.729218642124 -0.355468470785 -0.802733176091
H -0.286218642124 -0.269468470785 0.003266823909
H -0.606218642124 -0.258468470785 -2.947733176091
H 0.950781357876 -0.170468470785 -2.050733176091
H -0.242218642124 1.170531529215 -1.916733176091
O 0.756743470408 0.449998613623 2.476324443285
H 0.865743470408 1.335998613623 2.884324443285
H 1.126743470408 -0.103001386377 3.198324443285
