11
Coordinates from XML
N -0.73528765515 -0.578585569601 -0.901010378165
C -0.11128765515 0.091414430399 -2.050010378165
H -0.63028765515 -1.597585569601 -0.936010378165
H -1.73228765515 -0.357585569601 -0.810010378165
H -0.28928765515 -0.271585569601 -0.004010378165
H -0.60928765515 -0.260585569601 -2.955010378165
H 0.94771234485 -0.172585569601 -2.058010378165
H -0.24528765515 1.168414430399 -1.924010378165
O 0.762204817316 0.453766017338 2.489274315022
H 0.871204817316 1.339766017338 2.897274315022
H 1.132204817316 -0.099233982662 3.211274315022
