11
Coordinates from XML
N -0.736822161663 -0.579644119009 -0.904648979202
C -0.112822161663 0.090355880991 -2.053648979202
H -0.631822161663 -1.598644119009 -0.939648979202
H -1.733822161663 -0.358644119009 -0.813648979202
H -0.290822161663 -0.272644119009 -0.007648979202
H -0.610822161663 -0.261644119009 -2.958648979202
H 0.946177838337 -0.173644119009 -2.061648979202
H -0.246822161663 1.167355880991 -1.927648979202
O 0.76493549077 0.455649719195 2.495749250891
H 0.87393549077 1.341649719195 2.903749250891
H 1.13493549077 -0.097350280805 3.217749250891
