11
Coordinates from XML
N -0.736822 -0.579644 -0.904649
C -0.112822 0.0903559 -2.05365
H -0.631822 -1.59864 -0.939649
H -1.73382 -0.358644 -0.813649
H -0.290822 -0.272644 -0.00764898
H -0.610822 -0.261644 -2.95865
H 0.946178 -0.173644 -2.06165
H -0.246822 1.16736 -1.92765
O 0.764935 0.45565 2.49575
H 0.873935 1.34165 2.90375
H 1.13494 -0.0973503 3.21775
