11
Coordinates from XML
N -0.739891 -0.581761 -0.911926
C -0.115891 0.0882388 -2.06093
H -0.634891 -1.60076 -0.946926
H -1.73689 -0.360761 -0.820926
H -0.293891 -0.274761 -0.0149262
H -0.613891 -0.263761 -2.96593
H 0.943109 -0.175761 -2.06893
H -0.249891 1.16524 -1.93493
O 0.770397 0.459417 2.5087
H 0.879397 1.34542 2.9167
H 1.1404 -0.0935829 3.2307
