11
Coordinates from XML
N -0.741425681203 -0.582819767234 -0.915564782314
C -0.117425681203 0.087180232766 -2.064564782314
H -0.636425681203 -1.601819767234 -0.950564782314
H -1.738425681203 -0.361819767234 -0.824564782314
H -0.295425681203 -0.275819767234 -0.018564782314
H -0.615425681203 -0.264819767234 -2.969564782314
H 0.941574318797 -0.176819767234 -2.072564782314
H -0.251425681203 1.164180232766 -1.938564782314
O 0.773127511133 0.461300824767 2.515174058496
H 0.882127511133 1.347300824767 2.923174058496
H 1.143127511133 -0.091699175233 3.237174058496
