11
Coordinates from XML
N -0.746029 -0.585995 -0.926481
C -0.122029 0.0840046 -2.07548
H -0.641029 -1.605 -0.961481
H -1.74303 -0.364995 -0.835481
H -0.300029 -0.278995 -0.0294806
H -0.620029 -0.267995 -2.98048
H 0.936971 -0.179995 -2.08348
H -0.256029 1.161 -1.94948
O 0.78132 0.466952 2.5346
H 0.89032 1.35295 2.9426
H 1.15132 -0.0860481 3.2566
