11
Coordinates from XML
N -0.747563707255 -0.587053964867 -0.930119186462
C -0.123563707255 0.082946035133 -2.079119186462
H -0.642563707255 -1.606053964867 -0.965119186462
H -1.744563707255 -0.366053964867 -0.839119186462
H -0.301563707255 -0.280053964867 -0.033119186462
H -0.621563707255 -0.269053964867 -2.984119186462
H 0.935436292745 -0.181053964867 -2.087119186462
H -0.257563707255 1.159946035133 -1.953119186462
O 0.78405020495 0.468835632197 2.54107380197
H 0.89305020495 1.354835632197 2.94907380197
H 1.15405020495 -0.084164367803 3.26307380197
