11
Coordinates from XML
N -0.749098213768 -0.588112514275 -0.933757787499
C -0.125098213768 0.081887485725 -2.082757787499
H -0.644098213768 -1.607112514275 -0.968757787499
H -1.746098213768 -0.367112514275 -0.842757787499
H -0.303098213768 -0.281112514275 -0.036757787499
H -0.623098213768 -0.270112514275 -2.987757787499
H 0.933901786232 -0.182112514275 -2.090757787499
H -0.259098213768 1.158887485725 -1.956757787499
O 0.786780878404 0.470719334054 2.547548737839
H 0.895780878404 1.356719334054 2.955548737839
H 1.156780878404 -0.082280665946 3.269548737839
