11
Coordinates from XML
N -0.750632720282 -0.589171063683 -0.937396388536
C -0.126632720282 0.080828936317 -2.086396388536
H -0.645632720282 -1.608171063683 -0.972396388536
H -1.747632720282 -0.368171063683 -0.846396388536
H -0.304632720282 -0.282171063683 -0.040396388536
H -0.624632720282 -0.271171063683 -2.991396388536
H 0.932367279718 -0.183171063683 -2.094396388536
H -0.260632720282 1.157828936317 -1.960396388536
O 0.789511551858 0.472603035911 2.554023673707
H 0.898511551858 1.358603035911 2.962023673707
H 1.159511551858 -0.080396964089 3.276023673707
