11
Coordinates from XML
N -0.752167 -0.59023 -0.941035
C -0.128167 0.0797704 -2.09003
H -0.647167 -1.60923 -0.976035
H -1.74917 -0.36923 -0.850035
H -0.306167 -0.28323 -0.044035
H -0.626167 -0.27223 -2.99503
H 0.930833 -0.18423 -2.09803
H -0.262167 1.15677 -1.96403
O 0.792242 0.474487 2.5605
H 0.901242 1.36049 2.9685
H 1.16224 -0.0785133 3.2825
