11
Coordinates from XML
N -0.753701733308 -0.5912881625 -0.94467359061
C -0.129701733308 0.0787118375 -2.09367359061
H -0.648701733308 -1.6102881625 -0.97967359061
H -1.750701733308 -0.3702881625 -0.85367359061
H -0.307701733308 -0.2842881625 -0.04767359061
H -0.627701733308 -0.2732881625 -2.99867359061
H 0.929298266692 -0.1852881625 -2.10167359061
H -0.263701733308 1.1557118375 -1.96767359061
O 0.794972898767 0.476370439626 2.566973545444
H 0.903972898767 1.362370439626 2.974973545444
H 1.164972898767 -0.076629560374 3.288973545444
