11
Coordinates from XML
N -0.753702 -0.591288 -0.944674
C -0.129702 0.0787118 -2.09367
H -0.648702 -1.61029 -0.979674
H -1.7507 -0.370288 -0.853674
H -0.307702 -0.284288 -0.0476736
H -0.627702 -0.273288 -2.99867
H 0.929298 -0.185288 -2.10167
H -0.263702 1.15571 -1.96767
O 0.794973 0.47637 2.56697
H 0.903973 1.36237 2.97497
H 1.16497 -0.0766296 3.28897
