11
Coordinates from XML
N -0.0241939 0.161827 -0.556374
C 0.162095 -0.368468 -1.97696
H 0.758515 -0.111721 0.0427018
H -0.882998 -0.20378 -0.137986
H -0.0820256 1.18322 -0.550965
H 0.21801 -1.4513 -1.93468
H 1.08119 0.043431 -2.37972
H -0.687845 -0.0556949 -2.5745
O -0.148093 0.204132 2.17748
H 0.794921 0.207391 1.9477
H -0.443297 -0.712457 2.29914
