11
Coordinates from XML
N -0.0241939 0.161827 -0.606743
C 0.162095 -0.368468 -2.02733
H 0.758515 -0.111721 -0.00766676
H -0.882998 -0.20378 -0.188355
H -0.0820256 1.18322 -0.601334
H 0.21801 -1.4513 -1.98505
H 1.08119 0.043431 -2.43009
H -0.687845 -0.0556949 -2.62487
O -0.148093 0.204132 2.26711
H 0.794921 0.207391 2.03733
H -0.443297 -0.712457 2.38877
