11
Coordinates from XML
N -0.024193886155 0.161826687967 -0.606742607577
C 0.162094562685 -0.368468051607 -2.027330758645
H 0.758515401103 -0.111720790359 -0.007666764893
H -0.882998071858 -0.203780158396 -0.188354830713
H -0.082025580823 1.183215389085 -0.60133370254
H 0.218010447175 -1.45130052353 -1.985051825205
H 1.081192103848 0.043430994649 -2.430092124769
H -0.687845396416 -0.055694949964 -2.624869453328
O -0.148093233809 0.204132176195 2.267107506289
H 0.794920990817 0.207391024749 2.03733144459
H -0.443296664673 -0.712457476753 2.388770273745
