11
Coordinates from XML
N -0.0241939 0.161827 -0.628329
C 0.162095 -0.368468 -2.04892
H 0.758515 -0.111721 -0.0292533
H -0.882998 -0.20378 -0.209941
H -0.0820256 1.18322 -0.62292
H 0.21801 -1.4513 -2.00664
H 1.08119 0.043431 -2.45168
H -0.687845 -0.0556949 -2.64646
O -0.148093 0.204132 2.30552
H 0.794921 0.207391 2.07574
H -0.443297 -0.712457 2.42718
