11
Coordinates from XML
N -0.0241939 0.161827 -0.649916
C 0.162095 -0.368468 -2.0705
H 0.758515 -0.111721 -0.0508398
H -0.882998 -0.20378 -0.231528
H -0.0820256 1.18322 -0.644507
H 0.21801 -1.4513 -2.02822
H 1.08119 0.043431 -2.47327
H -0.687845 -0.0556949 -2.66804
O -0.148093 0.204132 2.34393
H 0.794921 0.207391 2.11416
H -0.443297 -0.712457 2.4656
