11
Coordinates from XML
N -0.024193886155 0.161826687967 -0.678697672774
C 0.162094562685 -0.368468051607 -2.099285823842
H 0.758515401103 -0.111720790359 -0.079621830091
H -0.882998071858 -0.203780158396 -0.26030989591
H -0.082025580823 1.183215389085 -0.673288767737
H 0.218010447175 -1.45130052353 -2.057006890403
H 1.081192103848 0.043430994649 -2.502047189966
H -0.687845396416 -0.055694949964 -2.696824518525
O -0.148093233809 0.204132176195 2.395152441092
H 0.794920990817 0.207391024749 2.165376379392
H -0.443296664673 -0.712457476753 2.516815208548
