11
Coordinates from XML
N -0.024193886155 0.161826687967 -0.721870711892
C 0.162094562685 -0.368468051607 -2.142458862961
H 0.758515401103 -0.111720790359 -0.122794869209
H -0.882998071858 -0.203780158396 -0.303482935029
H -0.082025580823 1.183215389085 -0.716461806855
H 0.218010447175 -1.45130052353 -2.100179929521
H 1.081192103848 0.043430994649 -2.545220229084
H -0.687845396416 -0.055694949964 -2.739997557644
O -0.148093233809 0.204132176195 2.471979401973
H 0.794920990817 0.207391024749 2.242203340274
H -0.443296664673 -0.712457476753 2.59364216943
