11
Coordinates from XML
N -0.0241939 0.161827 -0.750653
C 0.162095 -0.368468 -2.17124
H 0.758515 -0.111721 -0.151577
H -0.882998 -0.20378 -0.332265
H -0.0820256 1.18322 -0.745244
H 0.21801 -1.4513 -2.12896
H 1.08119 0.043431 -2.574
H -0.687845 -0.0556949 -2.76878
O -0.148093 0.204132 2.5232
H 0.794921 0.207391 2.29342
H -0.443297 -0.712457 2.64486
