11
Coordinates from XML
N -0.024193886155 0.161826687967 -0.77223925753
C 0.162094562685 -0.368468051607 -2.192827408599
H 0.758515401103 -0.111720790359 -0.173163414847
H -0.882998071858 -0.203780158396 -0.353851480667
H -0.082025580823 1.183215389085 -0.766830352494
H 0.218010447175 -1.45130052353 -2.150548475159
H 1.081192103848 0.043430994649 -2.595588774722
H -0.687845396416 -0.055694949964 -2.790366103282
O -0.148093233809 0.204132176195 2.561610856335
H 0.794920990817 0.207391024749 2.331834794636
H -0.443296664673 -0.712457476753 2.683273623792
