11
Coordinates from XML
N -0.0241939 0.161827 -0.793826
C 0.162095 -0.368468 -2.21441
H 0.758515 -0.111721 -0.19475
H -0.882998 -0.20378 -0.375438
H -0.0820256 1.18322 -0.788417
H 0.21801 -1.4513 -2.17213
H 1.08119 0.043431 -2.61718
H -0.687845 -0.0556949 -2.81195
O -0.148093 0.204132 2.60002
H 0.794921 0.207391 2.37025
H -0.443297 -0.712457 2.72169
