11
Coordinates from XML
N -0.024193886155 0.161826687967 -0.793825777089
C 0.162094562685 -0.368468051607 -2.214413928158
H 0.758515401103 -0.111720790359 -0.194749934406
H -0.882998071858 -0.203780158396 -0.375438000226
H -0.082025580823 1.183215389085 -0.788416872053
H 0.218010447175 -1.45130052353 -2.172134994718
H 1.081192103848 0.043430994649 -2.617175294282
H -0.687845396416 -0.055694949964 -2.811952622841
O -0.148093233809 0.204132176195 2.600024336776
H 0.794920990817 0.207391024749 2.370248275077
H -0.443296664673 -0.712457476753 2.721687104232
