11
Coordinates from XML
N -0.024193886155 0.161826687967 -0.844194322728
C 0.162094562685 -0.368468051607 -2.264782473796
H 0.758515401103 -0.111720790359 -0.245118480044
H -0.882998071858 -0.203780158396 -0.425806545864
H -0.082025580823 1.183215389085 -0.838785417691
H 0.218010447175 -1.45130052353 -2.222503540356
H 1.081192103848 0.043430994649 -2.66754383992
H -0.687845396416 -0.055694949964 -2.862321168479
O -0.148093233809 0.204132176195 2.689655791138
H 0.794920990817 0.207391024749 2.459879729439
H -0.443296664673 -0.712457476753 2.811318558594
