11
Coordinates from XML
N -0.024193886155 0.161826687967 -0.865780842287
C 0.162094562685 -0.368468051607 -2.286368993355
H 0.758515401103 -0.111720790359 -0.266704999604
H -0.882998071858 -0.203780158396 -0.447393065423
H -0.082025580823 1.183215389085 -0.86037193725
H 0.218010447175 -1.45130052353 -2.244090059915
H 1.081192103848 0.043430994649 -2.689130359479
H -0.687845396416 -0.055694949964 -2.883907688038
O -0.148093233809 0.204132176195 2.728069271579
H 0.794920990817 0.207391024749 2.49829320988
H -0.443296664673 -0.712457476753 2.849732039035
