11
Coordinates from XML
N -0.0241939 0.161827 -0.894563
C 0.162095 -0.368468 -2.31515
H 0.758515 -0.111721 -0.295487
H -0.882998 -0.20378 -0.476175
H -0.0820256 1.18322 -0.889154
H 0.21801 -1.4513 -2.27287
H 1.08119 0.043431 -2.71791
H -0.687845 -0.0556949 -2.91269
O -0.148093 0.204132 2.77929
H 0.794921 0.207391 2.54951
H -0.443297 -0.712457 2.90095
