11
Coordinates from XML
N -0.0241939 0.161827 -0.916149
C 0.162095 -0.368468 -2.33674
H 0.758515 -0.111721 -0.317074
H -0.882998 -0.20378 -0.497762
H -0.0820256 1.18322 -0.91074
H 0.21801 -1.4513 -2.29446
H 1.08119 0.043431 -2.7395
H -0.687845 -0.0556949 -2.93428
O -0.148093 0.204132 2.8177
H 0.794921 0.207391 2.58792
H -0.443297 -0.712457 2.93936
