11
Coordinates from XML
N -0.0241939 0.161827 -0.966518
C 0.162095 -0.368468 -2.38711
H 0.758515 -0.111721 -0.367442
H -0.882998 -0.20378 -0.54813
H -0.0820256 1.18322 -0.961109
H 0.21801 -1.4513 -2.34483
H 1.08119 0.043431 -2.78987
H -0.687845 -0.0556949 -2.98464
O -0.148093 0.204132 2.90733
H 0.794921 0.207391 2.67756
H -0.443297 -0.712457 3.02899
