11
Coordinates from XML
N -0.024193886155 0.161826687967 -0.988104453122
C 0.162094562685 -0.368468051607 -2.40869260419
H 0.758515401103 -0.111720790359 -0.389028610439
H -0.882998071858 -0.203780158396 -0.569716676258
H -0.082025580823 1.183215389085 -0.982695548085
H 0.218010447175 -1.45130052353 -2.366413670751
H 1.081192103848 0.043430994649 -2.811453970314
H -0.687845396416 -0.055694949964 -3.006231298874
O -0.148093233809 0.204132176195 2.945745660743
H 0.794920990817 0.207391024749 2.715969599044
H -0.443296664673 -0.712457476753 3.0674084282
