11
Coordinates from XML
N -0.0241939 0.161827 -1.03847
C 0.162095 -0.368468 -2.45906
H 0.758515 -0.111721 -0.439397
H -0.882998 -0.20378 -0.620085
H -0.0820256 1.18322 -1.03306
H 0.21801 -1.4513 -2.41678
H 1.08119 0.043431 -2.86182
H -0.687845 -0.0556949 -3.0566
O -0.148093 0.204132 3.03538
H 0.794921 0.207391 2.8056
H -0.443297 -0.712457 3.15704
