11
Coordinates from XML
N -0.0241939 0.161827 -1.08165
C 0.162095 -0.368468 -2.50223
H 0.758515 -0.111721 -0.48257
H -0.882998 -0.20378 -0.663258
H -0.0820256 1.18322 -1.07624
H 0.21801 -1.4513 -2.45996
H 1.08119 0.043431 -2.905
H -0.687845 -0.0556949 -3.09977
O -0.148093 0.204132 3.1122
H 0.794921 0.207391 2.88243
H -0.443297 -0.712457 3.23387
