11
Coordinates from XML
N -0.024193886155 0.161826687967 -1.081646037878
C 0.162094562685 -0.368468051607 -2.502234188947
H 0.758515401103 -0.111720790359 -0.482570195195
H -0.882998071858 -0.203780158396 -0.663258261015
H -0.082025580823 1.183215389085 -1.076237132842
H 0.218010447175 -1.45130052353 -2.459955255507
H 1.081192103848 0.043430994649 -2.904995555071
H -0.687845396416 -0.055694949964 -3.09977288363
O -0.148093233809 0.204132176195 3.112204075987
H 0.794920990817 0.207391024749 2.882428014288
H -0.443296664673 -0.712457476753 3.233866843443
