11
Coordinates from XML
N -0.0241939 0.161827 -1.11043
C 0.162095 -0.368468 -2.53102
H 0.758515 -0.111721 -0.511352
H -0.882998 -0.20378 -0.69204
H -0.0820256 1.18322 -1.10502
H 0.21801 -1.4513 -2.48874
H 1.08119 0.043431 -2.93378
H -0.687845 -0.0556949 -3.12855
O -0.148093 0.204132 3.16342
H 0.794921 0.207391 2.93365
H -0.443297 -0.712457 3.28508
