11
Coordinates from XML
N -0.024193886155 0.161826687967 -1.153601103076
C 0.162094562685 -0.368468051607 -2.574189254144
H 0.758515401103 -0.111720790359 -0.554525260393
H -0.882998071858 -0.203780158396 -0.735213326212
H -0.082025580823 1.183215389085 -1.148192198039
H 0.218010447175 -1.45130052353 -2.531910320705
H 1.081192103848 0.043430994649 -2.976950620268
H -0.687845396416 -0.055694949964 -3.171727948827
O -0.148093233809 0.204132176195 3.24024901079
H 0.794920990817 0.207391024749 3.01047294909
H -0.443296664673 -0.712457476753 3.361911778246
