11
Coordinates from XML
N -0.024193886155 0.161826687967 -1.203969648714
C 0.162094562685 -0.368468051607 -2.624557799782
H 0.758515401103 -0.111720790359 -0.604893806031
H -0.882998071858 -0.203780158396 -0.78558187185
H -0.082025580823 1.183215389085 -1.198560743677
H 0.218010447175 -1.45130052353 -2.582278866343
H 1.081192103848 0.043430994649 -3.027319165906
H -0.687845396416 -0.055694949964 -3.222096494465
O -0.148093233809 0.204132176195 3.329880465152
H 0.794920990817 0.207391024749 3.100104403452
H -0.443296664673 -0.712457476753 3.451543232608
