11
Coordinates from XML
N -0.0241939 0.161827 -1.22556
C 0.162095 -0.368468 -2.64614
H 0.758515 -0.111721 -0.62648
H -0.882998 -0.20378 -0.807168
H -0.0820256 1.18322 -1.22015
H 0.21801 -1.4513 -2.60387
H 1.08119 0.043431 -3.04891
H -0.687845 -0.0556949 -3.24368
O -0.148093 0.204132 3.36829
H 0.794921 0.207391 3.13852
H -0.443297 -0.712457 3.48996
