11
Coordinates from XML
N -0.024193886155 0.161826687967 -1.254338194352
C 0.162094562685 -0.368468051607 -2.67492634542
H 0.758515401103 -0.111720790359 -0.655262351669
H -0.882998071858 -0.203780158396 -0.835950417488
H -0.082025580823 1.183215389085 -1.248929289315
H 0.218010447175 -1.45130052353 -2.632647411981
H 1.081192103848 0.043430994649 -3.077687711544
H -0.687845396416 -0.055694949964 -3.272465040103
O -0.148093233809 0.204132176195 3.419511919513
H 0.794920990817 0.207391024749 3.189735857814
H -0.443296664673 -0.712457476753 3.54117468697
