11
Coordinates from XML
N 0.120142 -0.153052 -1.92558
C -0.200418 0.335191 -0.513893
H -0.574436 0.18394 -2.59666
H 0.127657 -1.17504 -1.96742
H 1.03827 0.180717 -2.22928
H -1.17902 -0.0411466 -0.234355
H -0.197672 1.4199 -0.516569
H 0.559047 -0.0445952 0.161572
O 0.0711539 -0.178405 2.21237
H -0.69724 -0.233908 2.80277
H 0.511176 0.677035 2.34154
