11
Coordinates from XML
N 0.120142 -0.153052 -2.0407
C -0.200418 0.335191 -0.629022
H -0.574436 0.18394 -2.71179
H 0.127657 -1.17504 -2.08255
H 1.03827 0.180717 -2.34441
H -1.17902 -0.0411466 -0.349483
H -0.197672 1.4199 -0.631697
H 0.559047 -0.0445952 0.0464435
O 0.0711539 -0.178405 2.41724
H -0.69724 -0.233908 3.00764
H 0.511176 0.677035 2.54642
