11
Coordinates from XML
N 0.120142 -0.153052 -2.09827
C -0.200418 0.335191 -0.686586
H -0.574436 0.18394 -2.76935
H 0.127657 -1.17504 -2.14012
H 1.03827 0.180717 -2.40198
H -1.17902 -0.0411466 -0.407047
H -0.197672 1.4199 -0.689261
H 0.559047 -0.0445952 -0.0111206
O 0.0711539 -0.178405 2.51967
H -0.69724 -0.233908 3.11008
H 0.511176 0.677035 2.64885
