11
Coordinates from XML
N 0.120141536577 -0.153051876311 -2.321328594826
C -0.200417512923 0.335191460479 -0.909646289273
H -0.574435662253 0.183939946838 -2.992412004351
H 0.127656949966 -1.175036999206 -2.36317658714
H 1.038274521946 0.180717459552 -2.625036499806
H -1.179022682776 -0.041146611242 -0.630107680291
H -0.197671696842 1.419904849546 -0.912321470578
H 0.559047139145 -0.044595169157 -0.234181266463
O 0.071153898729 -0.178405250585 2.916614188591
H -0.697240040737 -0.23390823208 3.507015458328
H 0.511175864323 0.677034630353 3.045791455808
