11
Coordinates from XML
N 0.120141536577 -0.153051876311 -2.378892646983
C -0.200417512923 0.335191460479 -0.967210341431
H -0.574435662253 0.183939946838 -3.049976056509
H 0.127656949966 -1.175036999206 -2.420740639298
H 1.038274521946 0.180717459552 -2.682600551964
H -1.179022682776 -0.041146611242 -0.687671732449
H -0.197671696842 1.419904849546 -0.969885522736
H 0.559047139145 -0.044595169157 -0.291745318621
O 0.071153898729 -0.178405250585 3.019050136433
H -0.697240040737 -0.23390823208 3.60945140617
H 0.511175864323 0.677034630353 3.14822740365
