11
Coordinates from XML
N 0.120142 -0.153052 -2.43646
C -0.200418 0.335191 -1.02477
H -0.574436 0.18394 -3.10754
H 0.127657 -1.17504 -2.4783
H 1.03827 0.180717 -2.74016
H -1.17902 -0.0411466 -0.745236
H -0.197672 1.4199 -1.02745
H 0.559047 -0.0445952 -0.349309
O 0.0711539 -0.178405 3.12149
H -0.69724 -0.233908 3.71189
H 0.511176 0.677035 3.25066
