11
Coordinates from XML
N 0.120141536577 -0.153051876311 -2.494020751299
C -0.200417512923 0.335191460479 -1.082338445746
H -0.574435662253 0.183939946838 -3.165104160825
H 0.127656949966 -1.175036999206 -2.535868743613
H 1.038274521946 0.180717459552 -2.79772865628
H -1.179022682776 -0.041146611242 -0.802799836764
H -0.197671696842 1.419904849546 -1.085013627051
H 0.559047139145 -0.044595169157 -0.406873422937
O 0.071153898729 -0.178405250585 3.223922032118
H -0.697240040737 -0.23390823208 3.814323301855
H 0.511175864323 0.677034630353 3.353099299334
