11
Coordinates from XML
N 0.120141536577 -0.153051876311 -2.551584803457
C -0.200417512923 0.335191460479 -1.139902497904
H -0.574435662253 0.183939946838 -3.222668212983
H 0.127656949966 -1.175036999206 -2.593432795771
H 1.038274521946 0.180717459552 -2.855292708437
H -1.179022682776 -0.041146611242 -0.860363888922
H -0.197671696842 1.419904849546 -1.142577679209
H 0.559047139145 -0.044595169157 -0.464437475094
O 0.071153898729 -0.178405250585 3.32635797996
H -0.697240040737 -0.23390823208 3.916759249697
H 0.511175864323 0.677034630353 3.455535247176
