11
Coordinates from XML
N -0.650276 -0.519942 -0.699432
C -0.026276 0.150058 -1.84843
H -0.545276 -1.53894 -0.734432
H -1.64728 -0.298942 -0.608432
H -0.204276 -0.212942 0.197568
H -0.524276 -0.201942 -2.75343
H 1.03272 -0.113942 -1.85643
H -0.160276 1.22706 -1.72243
O 0.610926 0.349409 2.13056
H 0.719926 1.23541 2.53856
H 0.980926 -0.203591 2.85256
