11
Coordinates from XML
N -0.657992 -0.525265 -0.717729
C -0.0339924 0.144735 -1.86673
H -0.552992 -1.54426 -0.752729
H -1.65499 -0.304265 -0.626729
H -0.211992 -0.218265 0.179271
H -0.531992 -0.207265 -2.77173
H 1.02501 -0.119265 -1.87473
H -0.167992 1.22174 -1.74073
O 0.624657 0.358881 2.16312
H 0.733657 1.24488 2.57112
H 0.994657 -0.194119 2.88512
