11
Coordinates from XML
N -0.66570874554 -0.530587915006 -0.736025811141
C -0.04170874554 0.139412084994 -1.885025811141
H -0.56070874554 -1.549587915006 -0.771025811141
H -1.66270874554 -0.309587915006 -0.645025811141
H -0.21970874554 -0.223587915006 0.160974188859
H -0.53970874554 -0.212587915006 -2.790025811141
H 1.01729125446 -0.124587915006 -1.893025811141
H -0.17570874554 1.216412084994 -1.759025811141
O 0.638388280979 0.368353593118 2.195682222927
H 0.747388280979 1.254353593118 2.603682222927
H 1.008388280979 -0.184646406882 2.917682222927
