11
Coordinates from XML
N -0.673425121149 -0.535910906316 -0.754322776356
C -0.049425121149 0.134089093684 -1.903322776356
H -0.568425121149 -1.554910906316 -0.789322776356
H -1.670425121149 -0.314910906316 -0.663322776356
H -0.227425121149 -0.228910906316 0.142677223644
H -0.547425121149 -0.217910906316 -2.808322776356
H 1.009574878851 -0.129910906316 -1.911322776356
H -0.183425121149 1.211089093684 -1.777322776356
O 0.652119667491 0.377825922458 2.228241900437
H 0.761119667491 1.263825922458 2.636241900437
H 1.022119667491 -0.175174077542 2.950241900437
