11
Coordinates from XML
N -0.673425 -0.535911 -0.754323
C -0.0494251 0.134089 -1.90332
H -0.568425 -1.55491 -0.789323
H -1.67043 -0.314911 -0.663323
H -0.227425 -0.228911 0.142677
H -0.547425 -0.217911 -2.80832
H 1.00957 -0.129911 -1.91132
H -0.183425 1.21109 -1.77732
O 0.65212 0.377826 2.22824
H 0.76112 1.26383 2.63624
H 1.02212 -0.175174 2.95024
