11
Coordinates from XML
N -0.681141 -0.541234 -0.77262
C -0.0571415 0.128766 -1.92162
H -0.576141 -1.56023 -0.80762
H -1.67814 -0.320234 -0.68162
H -0.235141 -0.234234 0.12438
H -0.555141 -0.223234 -2.82662
H 1.00186 -0.135234 -1.92962
H -0.191141 1.20577 -1.79562
O 0.665851 0.387298 2.2608
H 0.774851 1.2733 2.6688
H 1.03585 -0.165702 2.9828
