11
Coordinates from XML
N -0.696574247976 -0.551879880245 -0.809213672001
C -0.072574247976 0.118120119755 -1.958213672001
H -0.591574247976 -1.570879880245 -0.844213672001
H -1.693574247976 -0.330879880245 -0.718213672001
H -0.250574247976 -0.244879880245 0.087786327999
H -0.570574247976 -0.233879880245 -2.863213672001
H 0.986425752024 -0.145879880245 -1.966213672001
H -0.206574247976 1.195120119755 -1.832213672001
O 0.693313827029 0.406242910478 2.325920932968
H 0.802313827029 1.292242910478 2.733920932968
H 1.063313827029 -0.146757089522 3.047920932968
