11
Coordinates from XML
N -0.696574 -0.55188 -0.809214
C -0.0725742 0.11812 -1.95821
H -0.591574 -1.57088 -0.844214
H -1.69357 -0.33088 -0.718214
H -0.250574 -0.24488 0.0877863
H -0.570574 -0.23388 -2.86321
H 0.986426 -0.14588 -1.96621
H -0.206574 1.19512 -1.83221
O 0.693314 0.406243 2.32592
H 0.802314 1.29224 2.73392
H 1.06331 -0.146757 3.04792
