11
Coordinates from XML
N -0.704291 -0.557203 -0.827511
C -0.0802906 0.112797 -1.97651
H -0.599291 -1.5762 -0.862511
H -1.70129 -0.336203 -0.736511
H -0.258291 -0.250203 0.0694894
H -0.578291 -0.239203 -2.88151
H 0.978709 -0.151203 -1.98451
H -0.214291 1.1898 -1.85051
O 0.707045 0.415715 2.35848
H 0.816045 1.30172 2.76648
H 1.07705 -0.137285 3.08048
