11
Coordinates from XML
N -0.704290623585 -0.557202871555 -0.827510637216
C -0.080290623585 0.112797128445 -1.976510637216
H -0.599290623585 -1.576202871555 -0.862510637216
H -1.701290623585 -0.336202871555 -0.736510637216
H -0.258290623585 -0.250202871555 0.069489362784
H -0.578290623585 -0.239202871555 -2.881510637216
H 0.978709376415 -0.151202871555 -1.984510637216
H -0.214290623585 1.189797128445 -1.850510637216
O 0.707045213541 0.415715239818 2.358480610478
H 0.816045213541 1.301715239818 2.766480610478
H 1.077045213541 -0.137284760182 3.080480610478
