11
Coordinates from XML
N -0.712007 -0.562526 -0.845808
C -0.088007 0.107474 -1.99481
H -0.607007 -1.58153 -0.880808
H -1.70901 -0.341526 -0.754808
H -0.266007 -0.255526 0.0511924
H -0.586007 -0.244526 -2.89981
H 0.970993 -0.156526 -2.00281
H -0.222007 1.18447 -1.86881
O 0.720777 0.425188 2.39104
H 0.829777 1.31119 2.79904
H 1.09078 -0.127812 3.11304
