11
Coordinates from XML
N -0.712006999194 -0.562525862865 -0.845807602431
C -0.088006999194 0.107474137135 -1.994807602431
H -0.607006999194 -1.581525862865 -0.880807602431
H -1.709006999194 -0.341525862865 -0.754807602431
H -0.266006999194 -0.255525862865 0.051192397569
H -0.586006999194 -0.244525862865 -2.899807602431
H 0.970993000806 -0.156525862865 -2.002807602431
H -0.222006999194 1.184474137135 -1.868807602431
O 0.720776600054 0.425187569158 2.391040287988
H 0.829776600054 1.311187569158 2.799040287988
H 1.090776600054 -0.127812430842 3.113040287988
