11
Coordinates from XML
N -0.719723374803 -0.567848854175 -0.864104567646
C -0.095723374803 0.102151145825 -2.013104567646
H -0.614723374803 -1.586848854175 -0.899104567646
H -1.716723374803 -0.346848854175 -0.773104567646
H -0.273723374803 -0.260848854175 0.032895432354
H -0.593723374803 -0.249848854175 -2.918104567646
H 0.963276625197 -0.161848854175 -2.021104567646
H -0.229723374803 1.179151145825 -1.887104567646
O 0.734507986566 0.434659898498 2.423599965498
H 0.843507986566 1.320659898498 2.831599965498
H 1.104507986566 -0.118340101502 3.145599965498
