11
Coordinates from XML
N -0.750588877238 -0.589140819415 -0.937292428506
C -0.126588877238 0.080859180585 -2.086292428506
H -0.645588877238 -1.608140819415 -0.972292428506
H -1.747588877238 -0.368140819415 -0.846292428506
H -0.304588877238 -0.282140819415 -0.040292428506
H -0.624588877238 -0.271140819415 -2.991292428506
H 0.932411122762 -0.183140819415 -2.094292428506
H -0.260588877238 1.157859180585 -1.960292428506
O 0.789433532617 0.472549215858 2.55383867554
H 0.898433532617 1.358549215858 2.96183867554
H 1.159433532617 -0.080450784142 3.27583867554
