11
Coordinates from XML
N -0.610142 0.0472486 -0.748573
C 0.809864 0.136615 -1.30497
H -1.25928 -0.306884 -1.45537
H -0.944397 0.965661 -0.446823
H -0.649233 -0.5818 0.0572678
H 0.803913 0.811616 -2.15455
H 1.12199 -0.856039 -1.6113
H 1.46139 0.515306 -0.524338
O -0.132814 -0.208826 1.79446
H -0.427117 0.714056 1.73316
H 0.835217 -0.230834 1.86164
