11
Coordinates from XML
N -0.610142250435 0.047248591098 -0.784550185054
C 0.809864329459 0.136614854097 -1.340950738649
H -1.259282760516 -0.306883875863 -1.491346273441
H -0.944396986126 0.965661395954 -0.482800257362
H -0.649232553073 -0.5817996935 0.021290272989
H 0.803913107111 0.811615604608 -2.19052641295
H 1.121988266172 -0.85603906081 -1.647275216734
H 1.461385298824 0.515305691438 -0.560315667042
O -0.132814381161 -0.208826023777 1.858479395517
H -0.427116927639 0.714056423302 1.797181055574
H 0.835217478081 -0.230834084392 1.925661619568
