11
Coordinates from XML
N -0.610142 0.0472486 -0.806137
C 0.809864 0.136615 -1.36254
H -1.25928 -0.306884 -1.51293
H -0.944397 0.965661 -0.504387
H -0.649233 -0.5818 -0.000296247
H 0.803913 0.811616 -2.21211
H 1.12199 -0.856039 -1.66886
H 1.46139 0.515306 -0.581902
O -0.132814 -0.208826 1.89689
H -0.427117 0.714056 1.83559
H 0.835217 -0.230834 1.96408
