11
Coordinates from XML
N -0.610142250435 0.047248591098 -0.88528727633
C 0.809864329459 0.136614854097 -1.441687829926
H -1.259282760516 -0.306883875863 -1.592083364717
H -0.944396986126 0.965661395954 -0.583537348638
H -0.649232553073 -0.5817996935 -0.079446818287
H 0.803913107111 0.811615604608 -2.291263504226
H 1.121988266172 -0.85603906081 -1.74801230801
H 1.461385298824 0.515305691438 -0.661052758318
O -0.132814381161 -0.208826023777 2.037742304241
H -0.427116927639 0.714056423302 1.976443964298
H 0.835217478081 -0.230834084392 2.104924528292
