11
Coordinates from XML
N -0.610142 0.0472486 -0.942851
C 0.809864 0.136615 -1.49925
H -1.25928 -0.306884 -1.64965
H -0.944397 0.965661 -0.641101
H -0.649233 -0.5818 -0.137011
H 0.803913 0.811616 -2.34883
H 1.12199 -0.856039 -1.80558
H 1.46139 0.515306 -0.718617
O -0.132814 -0.208826 2.14018
H -0.427117 0.714056 2.07888
H 0.835217 -0.230834 2.20736
