11
Coordinates from XML
N -0.610142250435 0.047248591098 -0.942851328488
C 0.809864329459 0.136614854097 -1.499251882083
H -1.259282760516 -0.306883875863 -1.649647416875
H -0.944396986126 0.965661395954 -0.641101400796
H -0.649232553073 -0.5817996935 -0.137010870445
H 0.803913107111 0.811615604608 -2.348827556384
H 1.121988266172 -0.85603906081 -1.805576360168
H 1.461385298824 0.515305691438 -0.718616810476
O -0.132814381161 -0.208826023777 2.140178252083
H -0.427116927639 0.714056423302 2.07887991214
H 0.835217478081 -0.230834084392 2.207360476134
