462
Coordinates from XML
N -0.328844777353 -0.592071297519 -1.379714070912
C 0.37655281954 0.677962775778 -1.121238959998
H -0.113281145591 -0.956453880302 -2.316994922111
H -1.348768198553 -0.472923014957 -1.321063310894
H -0.061976760266 -1.314454875596 -0.697905793182
H 0.052213479372 1.399210074284 -1.873696837103
H 1.448528621207 0.486138725609 -1.197609271094
H 0.107865865109 1.010759506153 -0.116835038873
O 0.029612458346 0.02108918708 2.295330709233
H 0.226274483908 -0.77491218665 1.792511227987
H -0.695292940595 0.441994314709 1.823660690977
N -0.260632648878 -0.043552722262 -0.782392607501
C 0.298434379727 0.049875298222 -2.144779102779
H -1.241666342684 0.264203920184 -0.757969654211
H 0.264378490187 0.543436074479 -0.120813083665
H -0.230449139037 -1.009515182182 -0.430363373264
H 0.238201297827 1.09335207985 -2.459603993866
H -0.298780508769 -0.591660672207 -2.795568612224
H 1.335480020721 -0.288734427832 -2.104117426516
O 0.02567626649 -0.030544736483 2.470448631961
H 0.422628617943 0.079004018565 3.3396721193
H -0.829379136092 0.405961469571 2.529305752113
N -0.649621063074 -0.038507888959 -1.374421940883
C 0.743855168963 0.044116119551 -1.852730381082
H -1.227115584451 0.714654647004 -1.770634020711
H -0.699472653919 0.039596047144 -0.350071120092
H -1.083921220341 -0.932818785873 -1.63807036788
H 1.146453510687 1.010349663448 -1.543063069459
H 0.729332632179 -0.044700913423 -2.940692531425
H 1.301842461549 -0.777305816375 -1.399200046381
O 0.008197070862 0.064352782566 2.851560056124
H 0.319442833212 -0.649136618102 3.416520692411
H -0.447548912489 -0.372204563056 2.125726154572
N 0.012155976036 -0.130768277365 -0.907759537913
C -0.013914526715 0.1497344027 -2.356213981574
H 0.827089484836 -0.703465657086 -0.651558781677
H -0.830116924246 -0.640167380695 -0.60948294651
H 0.059251496229 0.737673337853 -0.358660026955
H -0.063787180437 -0.806338237617 -2.880641626582
H 0.901312994737 0.688665653245 -2.608548484097
H -0.896980330144 0.75741879848 -2.562824828192
O -0.022186915965 0.053329975596 2.847742088817
H -0.314799076378 -0.85530655182 2.965552761603
H 0.666930489278 0.009212993098 2.178195627661
N 0.544063203836 0.094272016005 -2.058034390264
C -0.622984528 -0.107932705736 -1.177980674788
H 1.377058545879 0.365743176385 -1.519369458033
H 0.367968067229 0.834821608929 -2.749740117639
H 0.776255642389 -0.763711596613 -2.575595876426
H -0.817465715439 0.83295512144 -0.659816902988
H -0.374438275051 -0.901539100139 -0.470750400473
H -1.469404703146 -0.392590408127 -1.805926898261
O -0.03371573599 0.047828345762 2.961749374347
H 0.101158249786 -0.851285697534 3.275635524263
H 0.432326710823 0.091824166088 2.121517040071
N 0.124361560951 0.080322220136 -0.493887900449
C -0.142411407075 -0.091979290501 -1.934903539838
H 0.253524167373 -0.8262186723 -0.025658927144
H -0.652703416914 0.563334890155 -0.024048788863
H 0.97550056956 0.635245773796 -0.334071325534
H -1.052788700252 -0.685535610452 -2.037327214409
H 0.713910717505 -0.607609160124 -2.373764869312
H -0.269398726711 0.900295310901 -2.371983528015
O -0.040270377091 0.051619804988 2.075105132106
H 0.921439816822 0.059576099504 2.06199901513
H -0.282619180644 -0.879175802507 2.072247775687
N -0.169294226549 -0.639090617751 -1.083575592126
C 0.19386929778 0.731795662089 -1.491208714363
H 0.548980587876 -1.317603417274 -1.368951505347
H -1.058771866279 -0.933077572433 -1.508170939364
H -0.274888814825 -0.711015241484 -0.062989617586
H 0.290495361777 0.742324380032 -2.578470908985
H 1.141152111694 0.983294296349 -1.010412793592
H -0.603494885959 1.400531860095 -1.161396895342
O 0.06218285114 0.020555980228 2.268752430604
H -0.730871613078 0.562943519106 2.224009336701
H -0.255623087314 -0.887252831632 2.270781369625
N 0.08215492221 0.053446392135 -0.635891771402
C -0.094083278067 -0.061209927325 -2.09643130362
H -0.701667802055 -0.37810251578 -0.128816612276
H 0.137158388387 1.037309670794 -0.341158540132
H 0.945350037427 -0.411447309842 -0.32494621519
H -1.021939505612 0.448896553195 -2.361875703706
H -0.145090311351 -1.123145793311 -2.344325452576
H 0.765223888077 0.412735890383 -2.574699153356
O 0.017645514983 -0.062902031889 2.347513683674
H 0.594549491552 0.706162812714 2.318485479894
H -0.874887105684 0.292104810165 2.297741872988
N 0.065306901318 0.640529132889 -1.854016875097
C -0.074781630066 -0.733433186121 -1.334416596693
H 0.636384050638 1.222003638353 -1.226724256761
H -0.850099672973 1.098931964643 -1.952898913829
H 0.516294225135 0.647433247994 -2.778398758818
H -0.557254742601 -0.673254002385 -0.357081090572
H 0.925416428635 -1.163186648591 -1.252704817461
H -0.687585037096 -1.296715568951 -2.040786557496
O -0.029312794213 0.052070755709 2.894806544928
H 0.018846534786 -0.838419166707 3.25512577437
H 0.446228625389 0.009933024753 2.059817718731
N 0.286968690185 0.20874433439 -2.416966360696
C -0.32858330611 -0.239019092423 -1.152851906437
H 1.296691255285 0.01386218021 -2.431765938745
H 0.165053623055 1.220606582361 -2.555355368706
H -0.131962635118 -0.267043069071 -3.226930552118
H 0.156236258681 0.299306906145 -0.336309415894
H -0.165982821399 -1.314933719917 -1.064932587089
H -1.393990370233 -0.005481324519 -1.19912801992
O 0.008701132676 0.038672847207 3.304518575126
H 0.544053062752 0.001849629311 2.506293085939
H -0.68305002602 -0.616340846648 3.172008329087
N -0.632567273557 -0.114295700871 -1.626503792959
C 0.724327020213 0.130877728148 -1.101042504911
H -0.775499424419 0.356688109411 -2.529544429199
H -1.353221414564 0.23191857873 -0.979454110438
H -0.802814090353 -1.118350766512 -1.770755470701
H 0.842190683921 1.208196579604 -0.970356702026
H 1.439488086698 -0.256867770289 -1.829025394426
H 0.812546334627 -0.392344375401 -0.146982987417
O -0.015013231239 -0.063417765613 2.464319138152
H -0.41175839763 0.677854987784 2.931469593591
H 0.652012622475 0.32911643239 1.893254357348
N 0.110330115727 -0.320174098918 -0.725201997767
C -0.126337412374 0.366634219997 -2.009594661329
H -0.662709188938 -0.159325355184 -0.066206053103
H 0.973951973856 0.012068708943 -0.276145194249
H 0.200171698138 -1.336574941562 -0.854727737075
H -0.212101014375 1.435605913504 -1.805803952383
H -1.051793140471 -0.027697676953 -2.433617137597
H 0.724220659021 0.158196555501 -2.661421545712
O 0.041975869769 0.048241221983 2.370113215704
H -0.911026360264 0.116393277101 2.259371999637
H 0.244410511229 -0.881129451884 2.227242867157
N 0.040088459115 -0.239283741636 -1.996455095989
C -0.045915769475 0.274001199385 -0.615685911083
H -0.830292965198 -0.065098287762 -2.515909948571
H 0.210410511802 -1.25353503786 -2.009289287741
H 0.805784325102 0.209669811645 -2.516137352569
H -0.872422749515 -0.238436702806 -0.11982288731
H -0.226497207819 1.34928183275 -0.669749888319
H 0.902872507783 0.059692637847 -0.120058807921
O 0.010780825224 0.050565101422 2.367134275805
H -0.758577035316 -0.52627788077 2.38863372514
H 0.587331201821 -0.275594447157 3.064508767822
N -0.154294691433 0.55707938644 -1.934340345955
C 0.176684441791 -0.637899693608 -1.134428156013
H -0.642270860998 0.303011274745 -2.803285909588
H 0.69238110534 1.079054100282 -2.196184771651
H -0.76510627804 1.199686400304 -1.412914865757
H 0.82315916217 -1.276242101629 -1.739552883679
H -0.758333850498 -1.145448965403 -0.889692503147
H 0.689893535852 -0.303266112054 -0.230873856665
O 0.060110088393 -0.014651898684 2.757077493751
H -0.37760013857 0.841554628861 2.736060610036
H -0.576040290952 -0.610706713491 3.163467605103
N 0.037957588896 -0.054903640227 -2.303644255253
C -0.043462803805 0.062856415364 -0.835010540211
H -0.669568416788 -0.706844787645 -2.667123871715
H 0.959621793571 -0.401037128524 -2.601313051233
H -0.114049782604 0.853524081308 -2.761434527928
H 0.125532632522 -0.928576740147 -0.410643516687
H -1.039544035418 0.432643023797 -0.584329359721
H 0.728340988361 0.764557913615 -0.512974061298
O 0.051555473074 0.002818201554 2.921381901298
H -0.53623260114 0.722288814196 2.672406425887
H -0.282215225382 -0.766852241489 2.450928821854
N -0.120324326063 0.497563229225 -0.90761926056
C 0.137774729966 -0.569735652559 -1.893337107725
H -1.127974200554 0.617432901785 -0.740255190225
H 0.249720941893 1.401852929062 -1.22887717631
H 0.320756433753 0.286593089449 -0.002711274385
H -0.353461996329 -0.288235871412 -2.826627460162
H -0.276468452993 -1.498417729605 -1.496205901263
H 1.218552483472 -0.647215065784 -2.026340746974
O 0.061263321402 0.022883663534 2.435699760881
H -0.752627530353 0.532308906813 2.379226998066
H -0.219422821654 -0.89707248409 2.439888501193
N -0.0200856236 -0.103029293708 -0.651322680836
C 0.02298869418 0.11796106984 -2.109640054512
H 0.170247439526 -1.08581564974 -0.415437023197
H -0.942294803283 0.135331944787 -0.263258048472
H 0.67893965874 0.473141570784 -0.16417805184
H -0.737614037831 -0.518026056396 -2.566357023016
H 1.021548588578 -0.151565721128 -2.4589171025
H -0.185657530195 1.173590960218 -2.293721198556
O -0.058747271659 -0.003785527716 2.340066161361
H 0.388985139571 0.787464519284 2.654041671641
H 0.543561624191 -0.727059651154 2.538106829773
N -0.024253529351 -0.146153692909 -0.947227916748
C 0.027774509854 0.167370392071 -2.388191979893
H 0.325995195317 0.637257556031 -0.380367805343
H 0.54769116519 -0.970867194225 -0.722268104487
H -0.986125863456 -0.3438349975 -0.641216781822
H 1.068850643038 0.366355472229 -2.649251269689
H -0.595398631344 1.04682260871 -2.561339445189
H -0.354906142086 -0.698235063852 -2.932302532361
O -0.047520486771 0.04270650173 2.895265969591
H 0.343563087098 -0.129228807891 2.033515740374
H 0.410795857377 -0.548192730086 3.500167446302
N -0.161077242702 0.359614117283 -1.026345487806
C 0.184450983279 -0.411784772819 -2.235864275341
H 0.627370272096 0.942250575943 -0.715503062373
H -0.414072255109 -0.260638063832 -0.245857969956
H -0.959893318221 0.984896610242 -1.1961506158
H 1.034110503103 -1.052262937867 -1.992034518197
H 0.441960923675 0.299229891406 -3.023206505794
H -0.688217257363 -1.006008453702 -2.513572645493
O -0.038899772208 -0.042177119244 2.798108121706
H 0.538390644383 -0.22638645742 3.545051402445
H 0.079555472998 0.894746562388 2.615724077227
N 0.306730076282 -0.080533269297 -1.102085354334
C -0.351232714508 0.092196623919 -2.411524566335
H 0.677793379964 -1.033378278453 -0.991921144233
H -0.349324286808 0.087476882576 -0.327976013518
H 1.092984343493 0.572813617744 -0.988678244828
H -1.171946297226 -0.625152898525 -2.470051549783
H 0.393044595072 -0.098616454197 -3.187026123822
H -0.72144671581 1.117716030904 -2.46652564939
O -0.044964141479 -0.038551502975 3.075337321827
H 0.136673735324 0.885418882206 3.27131685907
H 0.576087443005 -0.273249408373 2.379396668745
N -0.667195005248 0.048722733576 -1.318761806691
C 0.763973642292 -0.055770922563 -0.974931793276
H -0.964472212401 1.030612348878 -1.391265499487
H -1.257463346824 -0.401539620002 -0.606914134866
H -0.870053541968 -0.40341318655 -2.220061215219
H 0.913572614271 0.439892908296 -0.013930209323
H 1.333996754911 0.437951464394 -1.76428144058
H 1.016023527781 -1.116165794383 -0.913229677875
O -0.035953787722 0.049557602448 2.084552164127
H 0.921442139178 -0.038868628146 2.110922808761
H -0.348695410571 -0.747900512103 1.647088105177
N -0.225169727512 0.630480440065 -1.165858488234
C 0.25783474326 -0.721948769237 -1.505009804083
H -0.390695418417 0.726849039455 -0.155387272067
H -1.109338077223 0.843988433421 -1.646005003521
H 0.456526109942 1.351036035127 -1.43790539526
H -0.505620473946 -1.437133264401 -1.193186457945
H 1.193454042399 -0.887030225309 -0.967305749848
H 0.41367541224 -0.759839867362 -2.584848463594
O 0.049420666334 -0.038027220486 2.376258934501
H -0.868435366975 -0.293521359026 2.244408195824
H 0.084684880783 0.895175035134 2.146016550728
N 0.087310059775 -0.055313239523 -2.255906618862
C -0.099965799245 0.063338132699 -0.797060737866
H 0.960334866137 -0.549406651636 -2.48270416643
H 0.129390632045 0.869163672542 -2.704740301305
H -0.685212810892 -0.576030602526 -2.691774651832
H 0.747416236937 0.622521806243 -0.396007332448
H -0.136404089223 -0.945646367261 -0.38186976992
H -1.038152617552 0.593654395899 -0.622866205976
O -0.026871653454 0.019922741956 2.860595337008
H 0.043810144555 0.514664988189 2.038795018669
H 0.382449371935 -0.830724384623 2.676265919341
N -0.105372739796 -0.018499829657 -2.089854658127
C 0.120648013214 0.021194411486 -0.632212491328
H -0.924225481109 0.543244795189 -2.357550202542
H -0.268863570449 -0.979579557233 -2.417690768913
H 0.704860099516 0.350513918183 -2.604899025152
H -0.769563858092 -0.381193881404 -0.14518783494
H 0.286919723057 1.062099423256 -0.348255654857
H 0.998139680509 -0.590345887989 -0.413579428995
O 0.019668722441 0.053042953389 2.476821550189
H 0.564698529718 -0.555522640538 2.984474972385
H -0.876571490426 -0.286361445404 2.558551011955
N -0.089030140384 0.00168624208 -2.178780871021
C 0.10196430377 -0.001921396103 -0.715602888939
H 0.794501164402 -0.180949963986 -2.672495555528
H -0.445692809883 0.908518373105 -2.507911903174
H -0.761532651893 -0.719730360314 -2.470701335882
H 0.822178253585 0.781031167472 -0.470932335574
H 0.479572485519 -0.985739133959 -0.430513903258
H -0.866265976518 0.196426230083 -0.251963024907
O 0.043370114875 0.049030101934 2.665240017945
H 0.227355618029 -0.895040040524 2.666811879717
H -0.915486821066 0.116788926426 2.631718560638
N 0.383046359006 0.327411568818 -2.000925890204
C -0.438598589686 -0.37492284841 -0.996432164655
H 0.672611308073 -0.306146118684 -2.757559577584
H 1.236709051901 0.71759723875 -1.580336827414
H -0.13418180364 1.105986983223 -2.430128000928
H 0.163083586009 -1.185047406474 -0.580183092736
H -1.324441548368 -0.763727618388 -1.502272172362
H -0.712347228184 0.347248154906 -0.22487250728
O 0.054191102442 -0.033546624537 2.742316623006
H -0.647373151498 0.239659056148 3.340888108825
H -0.213974348008 0.291810092713 1.877821471068
N -0.512373164234 0.144949734991 -1.91059015519
C 0.586710103852 -0.165986805925 -0.976397382077
H -0.390326290815 -0.34201991135 -2.808199682897
H -0.561267075809 1.152878547412 -2.109509496894
H -1.422954399161 -0.139032042522 -1.525732695033
H 1.520548979253 0.157500891944 -1.43995664918
H 0.585645527938 -1.244371167652 -0.806553203309
H 0.400061677253 0.377781544206 -0.048360784608
O 0.025783910645 -0.049448154091 2.659404299638
H 0.490687852872 0.699532372093 2.274678337557
H -0.898370126135 0.084901927504 2.429163247959
N 0.095730733378 0.237838108258 -2.293306698676
C -0.109609025965 -0.272342338366 -0.924024698825
H 1.090434152092 0.420979923761 -2.479752197984
H -0.414792028515 1.117585712517 -2.445919517242
H -0.232124094449 -0.436349403683 -2.997509446905
H 0.256174490189 0.484304128025 -0.22740782119
H 0.454467073011 -1.201826547728 -0.825850012116
H -1.178934289514 -0.445959955393 -0.789213780149
O -0.023700967573 -0.06096766367 2.941428219558
H -0.141223549564 0.569787375387 3.657988121748
H 0.517129354822 0.397207415579 2.291274599915
N 0.442556707273 -0.319654511055 -2.059112956017
C -0.506765487562 0.366030961599 -1.161335420664
H 0.110062739918 -0.312224348384 -3.032319149151
H 0.574869703316 -1.302065376233 -1.784809888117
H 1.366086627911 0.132879314587 -2.044122214325
H -1.462019846756 -0.158776148708 -1.22177660044
H -0.603592797135 1.398272524824 -1.503187489947
H -0.099124781489 0.324184822909 -0.149479929288
O -0.007612268389 0.063714479579 2.906173337803
H -0.694155273705 -0.573771197563 3.123871025641
H 0.813617790264 -0.43657083001 2.926602967628
N 0.610988564045 0.130469369547 -1.007303643902
C -0.699615027575 -0.149407193025 -1.624854480153
H 1.325969373506 0.3293063584 -1.719345801339
H 0.941793278151 -0.669239181553 -0.451502884255
H 0.563692732663 0.944552708666 -0.38044598757
H -0.583758821491 -1.018936925338 -2.274532796041
H -0.994032541536 0.732130600343 -2.197541529367
H -1.410901066916 -0.351359347744 -0.821697535688
O -0.014104428304 -0.060735545827 2.284640290139
H 0.807641173406 0.251391864825 2.675065975246
H -0.585649455988 0.712249840957 2.253794818058
N 0.064935131061 0.144736060598 -0.697782369226
C -0.074358572001 -0.165742249913 -2.133603452435
H 0.736019323964 -0.486847705962 -0.241180034744
H -0.833045008199 0.05060158437 -0.205186815166
H 0.397871283571 1.107090299308 -0.553051800274
H -0.428788269973 -1.194584657735 -2.219913469596
H 0.906891252341 -0.048310830406 -2.597413385427
H -0.795731079072 0.534977832658 -2.558322950367
O -0.06028315097 0.013765025876 2.454277396351
H 0.56153866557 -0.621126603077 2.822206490009
H 0.395124506258 0.402190184194 1.701382096774
N -0.672257006015 0.126690101938 -1.173282008244
C 0.769768278297 -0.145055112261 -1.018042457984
H -0.846700743156 1.119574241964 -1.376968549427
H -1.192354761468 -0.109761576863 -0.318022434568
H -1.076405898356 -0.422818220571 -1.943102361517
H 1.137230593194 0.464502810459 -0.190396932425
H 1.263115562733 0.124898830103 -1.953721001043
H 0.887979476782 -1.209140308608 -0.804682697329
O -0.065294392097 -0.002306205422 1.957349998423
H 0.487888605964 0.749182743024 2.190533404823
H 0.550591845532 -0.712967646325 1.755444008634
N -0.644534551224 -0.212244518928 -1.364878578788
C 0.738031913744 0.243031424878 -1.122772228318
H -1.014693263642 -0.73177330058 -0.558150549861
H -0.696731641146 -0.833157284959 -2.183183418554
H -1.275538084324 0.581371493735 -1.537873566171
H 1.354583322372 -0.640469702777 -0.947054705144
H 0.726591997719 0.894359322933 -0.246757326882
H 1.071553013784 0.784400901621 -2.010159598906
O -0.007192028819 0.057416622891 2.258677206562
H -0.700481139187 -0.525169760939 1.934540067651
H 0.816627765343 -0.385538992727 2.034550368948
N 0.166543271727 -0.082757816232 -0.841571926177
C -0.19069214242 0.094765676637 -2.262223174147
H 0.425515830494 0.812021511782 -0.405635109694
H 0.964672059111 -0.722345713737 -0.732954385627
H -0.618397987146 -0.473323284147 -0.30375696228
H 0.678583257519 0.509731267889 -2.77578949619
H -1.039143457952 0.780036712509 -2.310129150479
H -0.454142525345 -0.884997398097 -2.665251452465
O 0.021584368515 -0.061587636177 2.671036386645
H 0.547550856051 0.743539393125 2.68688853718
H -0.890669505434 0.234285399016 2.744341137587
N -0.418934749301 -0.222222933242 -2.369147248703
C 0.479713323288 0.254476826808 -1.300236269996
H -0.063083687375 0.033347736441 -3.299626369653
H -1.359906916483 0.18243198614 -2.275842442772
H -0.518563181223 -1.245682976335 -2.346282084277
H 0.543501747529 1.341455855767 -1.377658214788
H 1.456504391705 -0.20808282769 -1.454115393631
H 0.049251067099 -0.046395290432 -0.343182564572
O 0.016418610652 0.061605318811 3.344390988663
H -0.457962754903 -0.569683090312 3.893534717137
H 0.19864585647 -0.407481217569 2.524712623529
N 0.355673770395 -0.264140281157 -0.891261309476
C -0.407258814982 0.302462210673 -2.020100175932
H 0.942535670755 0.449635115861 -0.439757674366
H 0.975944751996 -1.023556312061 -1.201795061892
H -0.270232267179 -0.650299429586 -0.172205091776
H 0.309428306436 0.693485022148 -2.744701625626
H -1.042741126226 1.098599000002 -1.627557879136
H -1.006526808948 -0.500056316603 -2.454398995624
O 0.002893727205 -0.033292763976 2.578667165929
H -0.661887645283 -0.109388796467 1.887728173953
H 0.614858560723 0.638653901378 2.263852472091
N 0.070072447459 -0.004416324509 -2.109022006353
C -0.080217543731 0.005052767807 -0.641130676983
H 0.637004674497 -0.803183859301 -2.422543959824
H 0.530296118691 0.852188339889 -2.444137854038
H -0.842639896751 -0.06936249728 -2.578763713432
H 0.917473670978 0.075111008023 -0.20376285344
H -0.572200703353 -0.924908533232 -0.349779412671
H -0.688065473305 0.871393228544 -0.373271235108
O 0.060574387151 0.024733570473 2.533316261585
H -0.313986409081 -0.654704804869 1.964818878971
H -0.647716041849 0.262126925147 3.139196310229
N 0.107046405573 0.338096143198 -1.043934375943
C -0.12256593979 -0.38715662403 -2.308318927607
H 0.721450833292 -0.193424216341 -0.413275160047
H -0.775625889389 0.509190642461 -0.544438327883
H 0.550177089981 1.251172847836 -1.210803270538
H -0.592105482063 -1.342097437453 -2.064993649225
H 0.846520702096 -0.53709893753 -2.788057807771
H -0.777974940832 0.225419294877 -2.930382722509
O 0.038516323618 -0.029848623056 2.950272322128
H -0.58446297438 0.685281638256 3.110294425669
H -0.027229951455 -0.212543165415 2.008241695499
N 0.185636212981 -0.160558968995 -0.918795604055
C -0.212565911744 0.183843299557 -2.297274419736
H -0.141896419942 -1.099862447584 -0.657703494863
H -0.206096917857 0.503954660541 -0.238467153699
H 1.208336494455 -0.148054768295 -0.809952233856
H -1.302584019857 0.153368994016 -2.347457790372
H 0.232107070879 -0.554174229307 -2.967615434156
H 0.162528891903 1.186184445079 -2.512657093759
O 0.062547553182 0.019197096108 2.776693108378
H -0.720023346204 0.577834052845 2.801775133843
H -0.2733554823 -0.882050672056 2.783264343633
N -0.529152752849 0.400241394042 -1.394110694778
C 0.605909222367 -0.458303848418 -1.783874827385
H -1.171111436598 -0.092515425963 -0.759431638327
H -1.073113384417 0.697727843399 -2.214774239571
H -0.20798544383 1.249717127271 -0.911242557215
H 0.201538857764 -1.337669249952 -2.288639751696
H 1.140264060618 -0.738829471625 -0.874187358217
H 1.246614581564 0.118774516101 -2.45339016246
O 0.030405804986 0.056846222277 2.815487975734
H -0.473282799351 -0.192506650922 2.034948095594
H -0.00771024101 -0.711038200356 3.393434556756
N -0.082639217624 0.017252358353 -0.796953026478
C -0.117639217624 0.076252358353 -2.294953026478
H 0.172360782376 -0.932747641647 -0.481953026478
H -1.008639217624 0.256252358353 -0.406953026478
H 0.613360782376 0.686252358353 -0.428953026478
H -0.857639217624 -0.634747641647 -2.672953026478
H 0.869360782376 -0.178747641647 -2.687953026478
H -0.387639217624 1.087252358353 -2.609953026478
O 0.160360782376 -0.079747641647 2.571046973522
H 0.330360782376 0.574252358353 3.439046973522
H 0.272360782376 -0.739747641647 3.444046973522
N -0.003636619817 -0.005865201082 -0.430403092443
C -0.056636619817 0.041134798918 -1.927403092443
H 0.257363380183 -0.952865201082 -0.110403092443
H -0.926636619817 0.234134798918 -0.032403092443
H 0.694363380183 0.668134798918 -0.075403092443
H -0.797636619817 -0.674865201082 -2.290403092443
H 0.927363380183 -0.213865201082 -2.331403092443
H -0.333636619817 1.048134798918 -2.248403092443
O 0.037363380183 -0.026865201082 1.917596907557
H 0.193363380183 0.610134798918 2.801596907557
H 0.117363380183 -0.700865201082 2.782596907557
