6
Coordinates from XML
H 1.383975591087 0.584033859161 -1.626406565376
N 0.557975591087 -0.001966140839 -1.684406565376
H -0.233024408913 0.400033859161 -2.177406565376
H 0.729975591087 -0.987966140839 -1.856406565376
H 0.215975591087 -0.004966140839 -0.672406565376
F -0.522500975612 0.001919421554 1.577450946688
