6
Coordinates from XML
H 1.385951936265 0.5840154317 -1.632427738214
N 0.559951936265 -0.0019845683 -1.690427738214
H -0.231048063735 0.4000154317 -2.183427738214
H 0.731951936265 -0.9879845683 -1.862427738214
H 0.217951936265 -0.0049845683 -0.678427738214
F -0.524377035828 0.001936913957 1.583166589353
