6
Coordinates from XML
H 1.391880971799 0.583960149317 -1.650491256728
N 0.565880971799 -0.002039850683 -1.708491256728
H -0.225119028201 0.399960149317 -2.201491256728
H 0.737880971799 -0.988039850683 -1.880491256728
H 0.223880971799 -0.005039850683 -0.696491256728
F -0.530005216479 0.001989391166 1.600313517348
