6
Coordinates from XML
H 1.393857316977 0.583941721856 -1.656512429566
N 0.567857316977 -0.002058278144 -1.714512429566
H -0.223142683023 0.399941721856 -2.207512429566
H 0.739857316977 -0.988058278144 -1.886512429566
H 0.225857316977 -0.005058278144 -0.702512429566
F -0.531881276695 0.002006883569 1.606029160012
