6
Coordinates from XML
H 1.395833662154 0.583923294396 -1.662533602404
N 0.569833662154 -0.002076705604 -1.720533602404
H -0.221166337846 0.399923294396 -2.213533602404
H 0.741833662154 -0.988076705604 -1.892533602404
H 0.227833662154 -0.005076705604 -0.708533602404
F -0.533757336912 0.002024375972 1.611744802677
