6
Coordinates from XML
H 1.39978635251 0.583886439474 -1.67457594808
N 0.57378635251 -0.002113560526 -1.73257594808
H -0.21721364749 0.399886439474 -2.22557594808
H 0.74578635251 -0.988113560526 -1.90457594808
H 0.23178635251 -0.005113560526 -0.72057594808
F -0.537509457345 0.002059360778 1.623176088007
