6
Coordinates from XML
H 1.403739042866 0.583849584552 -1.686618293756
N 0.577739042866 -0.002150415448 -1.744618293756
H -0.213260957134 0.399849584552 -2.237618293756
H 0.749739042866 -0.988150415448 -1.916618293756
H 0.235739042866 -0.005150415448 -0.732618293756
F -0.541261577779 0.002094345584 1.634607373337
