6
Coordinates from XML
H 1.417573459111 0.583720592326 -1.728766503622
N 0.591573459111 -0.002279407674 -1.786766503622
H -0.199426540889 0.399720592326 -2.279766503622
H 0.763573459111 -0.988279407674 -1.958766503622
H 0.249573459111 -0.005279407674 -0.774766503622
F -0.554393999296 0.002216792404 1.674616871991
