6
Coordinates from XML
H 1.419549804289 0.583702164865 -1.73478767646
N 0.593549804289 -0.002297835135 -1.79278767646
H -0.197450195711 0.399702164865 -2.28578767646
H 0.765549804289 -0.988297835135 -1.96478767646
H 0.251549804289 -0.005297835135 -0.78078767646
F -0.556270059513 0.002234284807 1.680332514656
