6
Coordinates from XML
H 1.421526149467 0.583683737404 -1.740808849298
N 0.595526149467 -0.002316262596 -1.798808849298
H -0.195473850533 0.399683737404 -2.291808849298
H 0.767526149467 -0.988316262596 -1.970808849298
H 0.253526149467 -0.005316262596 -0.786808849298
F -0.558146119729 0.00225177721 1.686048157321
