6
Coordinates from XML
H 1.423502494645 0.583665309943 -1.746830022136
N 0.597502494645 -0.002334690057 -1.804830022136
H -0.193497505355 0.399665309943 -2.297830022136
H 0.769502494645 -0.988334690057 -1.976830022136
H 0.255502494645 -0.005334690057 -0.792830022136
F -0.560022179946 0.002269269613 1.691763799986
