6
Coordinates from XML
H 1.427455185001 0.583628455022 -1.758872367812
N 0.601455185001 -0.002371544978 -1.816872367812
H -0.189544814999 0.399628455022 -2.309872367812
H 0.773455185001 -0.988371544978 -1.988872367812
H 0.259455185001 -0.005371544978 -0.804872367812
F -0.563774300379 0.002304254419 1.703195085316
