6
Coordinates from XML
H 1.429431530178 0.583610027561 -1.76489354065
N 0.603431530178 -0.002389972439 -1.82289354065
H -0.187568469822 0.399610027561 -2.31589354065
H 0.775431530178 -0.988389972439 -1.99489354065
H 0.261431530178 -0.005389972439 -0.81089354065
F -0.565650360596 0.002321746822 1.70891072798
