6
Coordinates from XML
H 1.433384220534 0.583573172639 -1.776935886326
N 0.607384220534 -0.002426827361 -1.834935886326
H -0.183615779466 0.399573172639 -2.327935886326
H 0.779384220534 -0.988426827361 -2.006935886326
H 0.265384220534 -0.005426827361 -0.822935886326
F -0.569402481029 0.002356731628 1.72034201331
