6
Coordinates from XML
H 1.443265946424 0.583481035335 -1.807041750515
N 0.617265946424 -0.002518964665 -1.865041750515
H -0.173734053576 0.399481035335 -2.358041750515
H 0.789265946424 -0.988518964665 -2.037041750515
H 0.275265946424 -0.005518964665 -0.853041750515
F -0.578782782113 0.002444193643 1.748920226635
