6
Coordinates from XML
H 1.445242291602 0.583462607874 -1.813062923353
N 0.619242291602 -0.002537392126 -1.871062923353
H -0.171757708398 0.399462607874 -2.364062923353
H 0.791242291602 -0.988537392126 -2.043062923353
H 0.277242291602 -0.005537392126 -0.859062923353
F -0.58065884233 0.002461686046 1.7546358693
