6
Coordinates from XML
H 1.447218636779 0.583444180413 -1.819084096191
N 0.621218636779 -0.002555819587 -1.877084096191
H -0.169781363221 0.399444180413 -2.370084096191
H 0.793218636779 -0.988555819587 -2.049084096191
H 0.279218636779 -0.005555819587 -0.865084096191
F -0.582534902546 0.002479178449 1.760351511965
