6
Coordinates from XML
H 0.335396601305 -0.96686321152 -1.477168076768
N 5.4869299e-05 -6.1978648e-05 -1.456994312353
H -0.793087029636 0.072749730164 -0.813614163
H 0.753690629306 0.616148488501 -1.140467630937
H -0.296203388392 0.278194507024 -2.396502540932
F -2.9663624e-05 3.3507104e-05 1.383050655202
