6
Coordinates from XML
H 0.335396601305 -0.96686321152 -1.836279198993
N 5.4869299e-05 -6.1978648e-05 -1.816105434579
H -0.793087029636 0.072749730164 -1.172725285225
H 0.753690629306 0.616148488501 -1.499578753162
H -0.296203388392 0.278194507024 -2.755613663158
F -2.9663624e-05 3.3507104e-05 1.723939532977
