6
Coordinates from XML
H 0.335396601305 -0.96686321152 -2.133828414551
N 5.4869299e-05 -6.1978648e-05 -2.113654650137
H -0.793087029636 0.072749730164 -1.470274500783
H 0.753690629306 0.616148488501 -1.79712796872
H -0.296203388392 0.278194507024 -3.053162878716
F -2.9663624e-05 3.3507104e-05 2.006390317419
