6
Coordinates from XML
H 0.335396601305 -0.96686321152 -2.256952227886
N 5.4869299e-05 -6.1978648e-05 -2.236778463471
H -0.793087029636 0.072749730164 -1.593398314117
H 0.753690629306 0.616148488501 -1.920251782054
H -0.296203388392 0.278194507024 -3.17628669205
F -2.9663624e-05 3.3507104e-05 2.123266504084
