6
Coordinates from XML
H 0.335396601305 -0.96686321152 -2.369815723442
N 5.4869299e-05 -6.1978648e-05 -2.349641959027
H -0.793087029636 0.072749730164 -1.706261809674
H 0.753690629306 0.616148488501 -2.033115277611
H -0.296203388392 0.278194507024 -3.289150187606
F -2.9663624e-05 3.3507104e-05 2.230403008528
