6
Coordinates from XML
H 1.369200058091 0.584171626368 -1.581391130349
N 0.543200058091 -0.001828373632 -1.639391130349
H -0.247799941909 0.400171626368 -2.132391130349
H 0.715200058091 -0.987828373632 -1.811391130349
H 0.201200058091 -0.004828373632 -0.627391130349
F -0.508475192087 0.001788645018 1.534719713431
