6
Coordinates from XML
H 1.380627904357 0.584065073023 -1.616207435875
N 0.554627904357 -0.001934926977 -1.674207435875
H -0.236372095643 0.400065073023 -2.167207435875
H 0.726627904357 -0.987934926977 -1.846207435875
H 0.212627904357 -0.004934926977 -0.662207435875
F -0.519323159326 0.001889791566 1.567769347888
