6
Coordinates from XML
H 1.386341827491 0.58401179635 -1.633615588638
N 0.560341827491 -0.00198820365 -1.691615588638
H -0.230658172509 0.40001179635 -2.184615588638
H 0.732341827491 -0.98798820365 -1.863615588638
H 0.218341827491 -0.00498820365 -0.679615588638
F -0.524747142946 0.001940364839 1.584294165117
