6
Coordinates from XML
H 1.437767135691 0.583532306297 -1.790288963504
N 0.611767135691 -0.002467693703 -1.848288963504
H -0.179232864309 0.399532306297 -2.341288963504
H 0.783767135691 -0.988467693703 -2.020288963504
H 0.269767135691 -0.005467693703 -0.836288963504
F -0.573562995524 0.002395524304 1.733017520173
