6
Coordinates from XML
H 1.449194981957 0.583425752952 -1.825105269029
N 0.623194981957 -0.002574247048 -1.883105269029
H -0.167805018043 0.399425752952 -2.376105269029
H 0.795194981957 -0.988574247048 -2.055105269029
H 0.281194981957 -0.005574247048 -0.871105269029
F -0.584410962763 0.002496670852 1.766067154629
