6
Coordinates from XML
H 0.760773094861 0.67199763718 -1.827936846033
N 7.3806209e-05 3.9155341e-05 -1.959747592205
H -0.633394207842 0.039675116909 -1.156341779995
H -0.516089517857 0.23171883395 -2.812842714713
H 0.388437317831 -0.943536584838 -2.041661840174
F -3.9901359e-05 -2.1168292e-05 1.860293845376
