6
Coordinates from XML
H 0.760773094861 0.67199763718 -2.104965426035
N 7.3806209e-05 3.9155341e-05 -2.236776172207
H -0.633394207842 0.039675116909 -1.433370359997
H -0.516089517857 0.23171883395 -3.089871294715
H 0.388437317831 -0.943536584838 -2.318690420177
F -3.9901359e-05 -2.1168292e-05 2.123265265374
