6
Coordinates from XML
H 0.760773094861 0.67199763718 -2.17678765048
N 7.3806209e-05 3.9155341e-05 -2.308598396652
H -0.633394207842 0.039675116909 -1.505192584442
H -0.516089517857 0.23171883395 -3.16169351916
H 0.388437317831 -0.943536584838 -2.390512644622
F -3.9901359e-05 -2.1168292e-05 2.191443040929
