6
Coordinates from XML
H 0.725494612212 -0.553286421534 -0.951967807326
N 6.3991925e-05 -6.0053715e-05 -1.415925437912
H -0.456944503477 0.607381147913 -0.730015782737
H 0.42501558479 0.573350396318 -2.149742811753
H -0.693802663094 -0.627222736779 -1.831963143727
F -3.4595529e-05 3.246644e-05 1.344077003309
