6
Coordinates from XML
H 0.725494612212 -0.553286421534 -1.003269396215
N 6.3991925e-05 -6.0053715e-05 -1.467227026801
H -0.456944503477 0.607381147913 -0.781317371626
H 0.42501558479 0.573350396318 -2.201044400642
H -0.693802663094 -0.627222736779 -1.883264732617
F -3.4595529e-05 3.246644e-05 1.39277541442
