6
Coordinates from XML
H -0.323434608982 0.898769636761 -2.040299577014
N -2.7316502e-05 5.0941213e-05 -1.672497848739
H 0.175825010015 0.085910836489 -0.667501495009
H -0.716915614059 -0.712669169933 -1.833657864344
H 0.864626369223 -0.272199944573 -2.148023660432
F 1.4767939e-05 -2.7540009e-05 1.587603910892
