6
Coordinates from XML
H -0.323434608982 0.898769636761 -2.235245614794
N -2.7316502e-05 5.0941213e-05 -1.867443886518
H 0.175825010015 0.085910836489 -0.862447532789
H -0.716915614059 -0.712669169933 -2.028603902123
H 0.864626369223 -0.272199944573 -2.342969698211
F 1.4767939e-05 -2.7540009e-05 1.772657873113
