6
Coordinates from XML
H -0.323434608982 0.898769636761 -2.430191652573
N -2.7316502e-05 5.0941213e-05 -2.062389924298
H 0.175825010015 0.085910836489 -1.057393570568
H -0.716915614059 -0.712669169933 -2.223549939903
H 0.864626369223 -0.272199944573 -2.537915735991
F 1.4767939e-05 -2.7540009e-05 1.957711835334
