6
Coordinates from XML
H -0.696749247349 0.625492714669 -1.156279518388
N -6.3627997e-05 6.0033171e-05 -1.569835790957
H 0.488808087072 -0.505833962723 -0.825934356295
H -0.466474917798 -0.669387694433 -2.188036071924
H 0.674651699974 0.549506632646 -2.109037978603
F 3.4398781e-05 -3.2455334e-05 1.490175256767
