6
Coordinates from XML
H -0.513795855315 -0.884881594692 -1.317233586981
N -4.6923565e-05 -6.3121597e-05 -1.344140587456
H 0.36052742757 0.213807642691 -0.410031885615
H 0.780769140444 -0.07851574128 -2.001440214176
H -0.62732694926 0.749823439925 -1.647556560748
F 2.5367975e-05 3.4125009e-05 1.275919433005
