6
Coordinates from XML
H -0.513795855315 -0.884881594692 -1.409576446982
N -4.6923565e-05 -6.3121597e-05 -1.436483447457
H 0.36052742757 0.213807642691 -0.502374745616
H 0.780769140444 -0.07851574128 -2.093783074177
H -0.62732694926 0.749823439925 -1.739899420749
F 2.5367975e-05 3.4125009e-05 1.363576573004
