6
Coordinates from XML
H -0.513795855315 -0.884881594692 -1.471138353649
N -4.6923565e-05 -6.3121597e-05 -1.498045354124
H 0.36052742757 0.213807642691 -0.563936652283
H 0.780769140444 -0.07851574128 -2.155344980844
H -0.62732694926 0.749823439925 -1.801461327416
F 2.5367975e-05 3.4125009e-05 1.422014666337
