6
Coordinates from XML
H -0.641612647673 0.74015518963 -1.569309730937
N -6.2557051e-05 5.9191751e-05 -1.272262466979
H 0.54134525423 -0.325967704131 -2.077804320897
H 0.636503077561 0.366018960305 -0.559010071774
H -0.536004028056 -0.780425639766 -0.883056215662
F 3.3819802e-05 -3.2000442e-05 1.20771143875
