6
Coordinates from XML
H -0.641612647673 0.74015518963 -1.60009068427
N -6.2557051e-05 5.9191751e-05 -1.303043420313
H 0.54134525423 -0.325967704131 -2.108585274231
H 0.636503077561 0.366018960305 -0.589791025107
H -0.536004028056 -0.780425639766 -0.913837168995
F 3.3819802e-05 -3.2000442e-05 1.236930485417
