6
Coordinates from XML
H -0.641612647673 0.74015518963 -1.692433544271
N -6.2557051e-05 5.9191751e-05 -1.395386280314
H 0.54134525423 -0.325967704131 -2.200928134231
H 0.636503077561 0.366018960305 -0.682133885108
H -0.536004028056 -0.780425639766 -1.006180028996
F 3.3819802e-05 -3.2000442e-05 1.324587625416
