12
Coordinates from XML
N -0.0128694 -0.581854 -1.9342
C 0.0147549 0.666155 -2.72103
H -0.958772 -0.984393 -1.90309
H 0.286482 -0.419666 -0.963654
H 0.612753 -1.29233 -2.33636
H -0.665362 1.37557 -2.24589
H -0.31143 0.428713 -3.73542
H 1.03989 1.04144 -2.71602
O -0.801946 -0.815805 1.44749
O 0.609782 0.985418 1.58732
C 0.188093 -0.165814 1.87675
H 0.809765 -0.714217 2.66293
