12
Coordinates from XML
N 0.0207198 -0.266416 -2.33292
C -0.0237468 0.305068 -3.69263
H 0.821024 -0.902364 -2.21968
H -0.832077 -0.80188 -2.1234
H 0.106986 0.469643 -1.61969
H -0.115214 -0.5217 -4.3995
H 0.903806 0.857953 -3.85302
H -0.890029 0.967043 -3.74846
O -0.272539 0.0189333 0.985805
O 0.453073 -0.304087 3.13664
C -0.176706 0.279186 2.21463
H -0.760837 1.20196 2.55017
