12
Coordinates from XML
N 0.247545 0.588212 -2.81495
C -0.283453 -0.673425 -2.26386
H 1.17867 0.4532 -3.23031
H 0.335483 1.30807 -2.0856
H -0.367053 0.964651 -3.54876
H 0.409509 -1.01969 -1.49478
H -0.352727 -1.39242 -3.08241
H -1.26774 -0.464712 -1.84032
O -0.415567 -0.566247 2.74514
O 0.668185 0.3214 0.930062
C -0.247333 0.239456 1.79148
H -1.06486 1.03116 1.69065
