12
Coordinates from XML
N -0.0635696 0.00377398 -3.53503
C 0.072813 -0.00438607 -2.06577
H 0.55002 -0.69629 -3.97224
H 0.183472 0.921085 -3.92922
H -1.02819 -0.207162 -3.82302
H 1.11269 0.224938 -1.82566
H -0.201964 -0.999351 -1.71038
H -0.599799 0.755707 -1.66374
O -0.107613 0.148456 3.17537
O 0.00564054 0.189626 0.885742
C 0.0998283 -0.330905 2.02903
H 0.429784 -1.42472 2.02578
