12
Coordinates from XML
N -0.1729 0.61425 -2.96697
C 0.197977 -0.703231 -2.41554
H -1.13675 0.868578 -2.71388
H -0.110253 0.621924 -3.99356
H 0.44584 1.35603 -2.61364
H -0.491588 -1.44318 -2.8261
H 0.111735 -0.646685 -1.32874
H 1.22567 -0.914259 -2.71735
O 0.718844 -0.196511 2.81904
O -0.894493 -0.0686322 1.19493
C 0.171972 0.25931 1.77977
H 0.740439 1.11669 1.28272
