12
Coordinates from XML
N -0.0147223 -0.070419 -1.68696
C 0.0168085 0.0806014 -3.15447
H 0.929586 -0.210216 -1.30424
H -0.585412 -0.878512 -1.40558
H -0.412486 0.762415 -1.23299
H 0.446776 -0.830485 -3.57475
H 0.634508 0.95002 -3.38754
H -1.00951 0.22489 -3.49744
O -0.136259 1.04632 2.17053
O 0.475356 -0.948602 1.22018
C -0.33189 -0.0956231 1.67593
H -1.42899 -0.41164 1.63347
