12
Coordinates from XML
N -0.014722285329 -0.070418986986 -1.686961740315
C 0.016808530883 0.080601444966 -3.154469947025
H 0.92958648369 -0.210215526296 -1.304240410429
H -0.585412034205 -0.878512464342 -1.405575613466
H -0.412486134643 0.762415445092 -1.232990564002
H 0.446775905665 -0.830485442987 -3.574749936107
H 0.634507622643 0.950019620794 -3.387538343807
H -1.009507195559 0.224890105803 -3.497442820607
O -0.136259186113 1.046317319087 2.170527356579
O 0.475355950286 -0.948601892004 1.220182100292
C -0.331890366109 -0.095623125427 1.675930285626
H -1.428994348766 -0.411639829658 1.633473791596
