12
Coordinates from XML
N 0.211365 0.643843 -2.78177
C -0.242033 -0.737124 -2.52732
H 0.902144 0.677226 -3.54298
H 0.650696 1.05382 -1.94703
H -0.573373 1.25267 -3.04905
H 0.63173 -1.32966 -2.2498
H -0.696421 -1.11399 -3.44562
H -0.969333 -0.70526 -1.71382
O 0.324126 -0.405242 2.93425
O -0.0634939 0.191215 0.75459
C -0.25517 0.209271 1.99952
H -1.09854 0.901232 2.33896
