12
Coordinates from XML
N 0.096654792073 0.142729336267 -2.008812706992
C -0.11062996828 -0.163454501512 -3.437331585274
H -0.197398342783 -0.64085178133 -1.411091094511
H -0.441768005883 0.970466317426 -1.721006538428
H 1.087096166065 0.331964401059 -1.805994870159
H -1.175057126693 -0.353636847342 -3.587038063979
H 0.483813844165 -1.046548903577 -3.679285797651
H 0.218721860704 0.701973204206 -4.015549397973
O 0.648107839589 0.219204781692 0.968461288388
O -0.889516892317 -0.04934378792 2.64790276983
C 0.236246917279 -0.166302613866 2.094818438072
H 1.017273429646 -0.715953538161 2.721865253231
