12
Coordinates from XML
N -0.439859732496 -0.077874445409 -2.326836956501
C 0.50356202653 0.089135588293 -3.449086809804
H -1.233992941702 0.570940631648 -2.405126047817
H 0.01753785542 0.100520901016 -1.423043530466
H -0.821834001176 -1.03241094872 -2.297259567959
H 0.871579618178 1.116564633405 -3.425867432195
H -0.039211432774 -0.112662076364 -4.374524913847
H 1.318827414383 -0.62321167776 -3.308811010341
O 0.075410207023 0.767426427135 1.163422870072
O 0.166569720975 -0.551658123904 3.036558671402
C -0.236695999021 -0.211165056238 1.892719945905
H -1.019266448977 -0.909142223934 1.439158897939
