12
Coordinates from XML
N 0.097090534874 -0.058164845989 -2.089713525352
C -0.111118890065 0.066634061523 -3.545205115177
H 1.096492897488 -0.134613262455 -1.859304547185
H -0.371761179116 -0.893110674831 -1.71431567881
H -0.274948029321 0.758144496972 -1.586577894189
H 0.3027466 -0.825234737419 -4.019411749049
H 0.407881654689 0.966480731457 -3.880876703419
H -1.185403391256 0.143470318346 -3.723481810619
O -0.288301817561 -0.646293347243 1.052637752681
O 0.111904767302 0.390313654065 3.058183178312
C 0.172620718557 0.250566990043 1.807699174753
H 0.743239008385 1.078750782572 1.265654312121
