12
Coordinates from XML
N 0.46688862229 0.152162243329 -2.391606044987
C -0.534560042171 -0.174284255706 -3.425005752611
H 0.439581628927 -0.523406334093 -1.616622712707
H 0.303788440839 1.08642960467 -1.99358237943
H 1.420320841069 0.142280630934 -2.777337114426
H -1.51971196324 -0.147427123173 -2.955600898732
H -0.308270048716 -1.171975862272 -3.806011404868
H -0.455532850622 0.574922164463 -4.215080447164
O -0.286200944284 0.105001706442 3.165698890704
O 0.271883808751 0.247297279897 0.94641404684
C 0.013859874308 -0.344869002974 2.027935448702
H 0.059820922431 -1.48479024525 1.966507413879
