12
Coordinates from XML
N 0.466889 0.152162 -2.39161
C -0.53456 -0.174284 -3.42501
H 0.439582 -0.523406 -1.61662
H 0.303788 1.08643 -1.99358
H 1.42032 0.142281 -2.77734
H -1.51971 -0.147427 -2.9556
H -0.30827 -1.17198 -3.80601
H -0.455533 0.574922 -4.21508
O -0.286201 0.105002 3.1657
O 0.271884 0.247297 0.946414
C 0.0138599 -0.344869 2.02794
H 0.0598209 -1.48479 1.96651
