12
Coordinates from XML
N -0.202047 -0.0900984 -3.67663
C 0.231384 0.103171 -2.27943
H -0.679591 -0.992657 -3.79943
H 0.59787 -0.072801 -4.32294
H -0.854593 0.648017 -3.97208
H 0.918093 -0.707171 -2.02772
H -0.657941 0.0748839 -1.64693
H 0.728221 1.07311 -2.21506
O -0.286751 0.386529 1.09948
O -0.0257349 -0.547534 3.17706
C 0.305919 0.157614 2.18726
H 1.31705 0.678621 2.29436
