12
Coordinates from XML
N 0.060348744808 0.025566798441 -3.184416261915
C -0.069045431542 -0.029270593466 -1.715528346663
H 0.610616445616 -0.76632821695 -3.5419711277
H 0.528737997253 0.889697928017 -3.487350098076
H -0.859783465179 -0.004782774491 -3.64306069889
H 0.935667982305 0.006417789903 -1.290247468502
H -0.570917929161 -0.964232314676 -1.459146627334
H -0.65983951376 0.83278280237 -1.399933867712
O 0.162566687535 -1.140597067393 1.646224775817
O -0.383229636585 1.086291973635 1.644377743408
C 0.215956214308 0.053150029631 2.045027016004
H 0.929851494573 0.22874362371 2.91957071333
