12
Coordinates from XML
N 0.042724 0.414071 -3.87665
C -0.0488671 -0.474098 -2.70185
H -0.880957 0.57075 -4.30091
H 0.652627 0.0143476 -4.60199
H 0.426406 1.3338 -3.6221
H -0.460597 -1.42828 -3.03591
H -0.706159 0.00337179 -1.97264
H 0.958024 -0.600314 -2.29934
O -0.0218953 0.217617 3.51023
O -0.324217 -0.157955 1.26869
C 0.338749 -0.0585335 2.33524
H 1.45852 -0.251846 2.2167
