12
Coordinates from XML
N -0.0027532 0.062174 -1.93129
C 0.00320269 -0.0711696 -3.40084
H -0.821166 0.593656 -1.60654
H 0.837226 0.551996 -1.59605
H -0.0287493 -0.857594 -1.47165
H 0.0311733 0.933345 -3.82717
H -0.908545 -0.596105 -3.69225
H 0.891037 -0.641383 -3.6808
O 0.162916 0.294281 0.753427
O -0.496839 -0.31996 2.86159
C 0.326832 0.0251112 1.9731
H 1.40721 0.108168 2.3353
