12
Coordinates from XML
N -0.205981 0.275618 -3.45743
C 0.235832 -0.315516 -2.17965
H -0.795607 -0.378339 -3.98887
H 0.595397 0.523409 -4.05264
H -0.754278 1.13226 -3.30431
H 0.809022 -1.21583 -2.40873
H -0.655492 -0.555286 -1.59671
H 0.853889 0.423313 -1.66592
O 0.0028989 0.131307 0.8859
O -0.00636317 -0.472035 3.09787
C 0.00345902 0.333401 2.12932
H 0.014817 1.43559 2.4299
