12
Coordinates from XML
N 0.172164 0.0296268 -1.65903
C -0.197089 -0.0339851 -3.08626
H 0.464641 -0.891087 -1.30621
H -0.617881 0.345707 -1.08127
H 0.951032 0.682843 -1.5022
H -1.02401 -0.739548 -3.1861
H 0.678364 -0.37383 -3.6429
H -0.496254 0.968315 -3.39877
O 0.927928 0.636358 1.93722
O -1.09416 -0.345504 1.48552
C 0.162641 -0.284691 1.54616
H 0.700411 -1.22569 1.18472
