12
Coordinates from XML
N 0.436552 0.0168302 -2.08501
C -0.499788 -0.0192551 -3.2249
H 0.244553 0.816546 -1.4675
H 1.41124 0.0985265 -2.40313
H 0.367316 -0.837185 -1.51599
H -0.378506 0.909103 -3.78618
H -1.5113 -0.106125 -2.82359
H -0.245283 -0.885343 -3.83882
O 0.675768 -0.634286 2.56091
O -0.883734 0.628315 1.45153
C 0.203401 0.00584238 1.58416
H 0.875981 0.0251016 0.660817
