12
Coordinates from XML
N 0.491139 0.453982 -1.90631
C -0.562325 -0.51973 -2.25197
H 1.21516 0.497416 -2.63545
H 0.955954 0.205459 -1.02309
H 0.104875 1.40095 -1.79691
H -0.09135 -1.49924 -2.35358
H -1.01482 -0.202114 -3.19331
H -1.29611 -0.518837 -1.44367
O -0.938778 -0.598098 1.14613
O 1.01851 0.287553 1.94711
C -0.0781984 0.303803 1.32752
H -0.336594 1.30816 0.848136
