12
Coordinates from XML
N 0.01471387166 0.664300993862 -3.238483636243
C -0.016894026072 -0.760582510104 -2.856266890239
H 0.956814279072 1.061441050722 -3.126839838422
H -0.626796020344 1.221954598916 -2.659374384693
H -0.261915231992 0.795110111474 -4.22046348011
H 0.284749699014 -0.83232212113 -1.809628929277
H 0.680760302325 -1.295524993699 -3.503473184487
H -1.037697076855 -1.121314111526 -2.996293399328
O 0.518409837817 -0.040582491338 1.142909043259
O -0.183010080369 0.070170888233 3.322972259609
C -0.328285413135 -0.029180229869 2.075594917735
H -1.413400734196 -0.125394911659 1.731249546042
