12
Coordinates from XML
N -0.19695 -0.12587 -2.49501
C 0.225523 0.1441 -3.88282
H -0.810296 -0.949821 -2.44355
H -0.714211 0.670144 -2.09918
H 0.611837 -0.303519 -1.88491
H -0.672816 0.323609 -4.47641
H 0.765994 -0.732942 -4.244
H 0.870319 1.02493 -3.87024
O 0.732744 -0.27141 1.38065
O -0.955465 0.300779 2.82269
C 0.218053 -0.0287016 2.50453
H 0.938836 -0.123649 3.38587
