12
Coordinates from XML
N -0.473051743858 0.268218443731 -1.791050622925
C 0.361948256142 -0.328781556269 -2.815050622925
H -1.248051743858 0.865218443731 -2.068050622925
H 0.091948256142 0.802218443731 -1.079050622925
H -0.858051743858 -0.450781556269 -1.123050622925
H 0.813948256142 0.476218443731 -3.397050622925
H -0.271051743858 -0.954781556269 -3.447050622925
H 1.130948256142 -0.928781556269 -2.323050622925
O 0.705161199858 0.917298620836 1.441205255671
O -0.635838800142 -0.850701379164 1.380205255671
C 0.106161199858 -0.041701379164 2.011205255671
H 0.239161199858 -0.181701379164 3.116205255671
