12
Coordinates from XML
N -0.474755671012 0.267898671879 -1.798053626482
C 0.360244328988 -0.329101328121 -2.822053626482
H -1.249755671012 0.864898671879 -2.075053626482
H 0.090244328988 0.801898671879 -1.086053626482
H -0.859755671012 -0.451101328121 -1.130053626482
H 0.812244328988 0.475898671879 -3.404053626482
H -0.272755671012 -0.955101328121 -3.454053626482
H 1.129244328988 -0.929101328121 -2.330053626482
O 0.706374838822 0.917526381499 1.446193214202
O -0.634625161178 -0.850473618501 1.385193214202
C 0.107374838822 -0.041473618501 2.016193214202
H 0.240374838822 -0.181473618501 3.121193214202
