12
Coordinates from XML
N -0.474756 0.267899 -1.79805
C 0.360244 -0.329101 -2.82205
H -1.24976 0.864899 -2.07505
H 0.0902443 0.801899 -1.08605
H -0.859756 -0.451101 -1.13005
H 0.812244 0.475899 -3.40405
H -0.272756 -0.955101 -3.45405
H 1.12924 -0.929101 -2.33005
O 0.706375 0.917526 1.44619
O -0.634625 -0.850474 1.38519
C 0.107375 -0.0414736 2.01619
H 0.240375 -0.181474 3.12119
