12
Coordinates from XML
N -0.476459598165 0.267578900027 -1.80505663004
C 0.358540401835 -0.329421099973 -2.82905663004
H -1.251459598165 0.864578900027 -2.08205663004
H 0.088540401835 0.801578900027 -1.09305663004
H -0.861459598165 -0.451421099973 -1.13705663004
H 0.810540401835 0.475578900027 -3.41105663004
H -0.274459598165 -0.955421099973 -3.46105663004
H 1.127540401835 -0.929421099973 -2.33705663004
O 0.707588477786 0.917754142163 1.451181172733
O -0.633411522214 -0.850245857837 1.390181172733
C 0.108588477786 -0.041245857837 2.021181172733
H 0.241588477786 -0.181245857837 3.126181172733
