12
Coordinates from XML
N -0.479867 0.266939 -1.81906
C 0.355133 -0.330061 -2.84306
H -1.25487 0.863939 -2.09606
H 0.0851325 0.800939 -1.10706
H -0.864867 -0.452061 -1.15106
H 0.807133 0.474939 -3.42506
H -0.277867 -0.956061 -3.47506
H 1.12413 -0.930061 -2.35106
O 0.710016 0.91821 1.46116
O -0.630984 -0.84979 1.40016
C 0.111016 -0.0407903 2.03116
H 0.244016 -0.18079 3.13616
