12
Coordinates from XML
N -0.479867452473 0.266939356323 -1.819062637155
C 0.355132547527 -0.330060643677 -2.843062637155
H -1.254867452473 0.863939356323 -2.096062637155
H 0.085132547527 0.800939356323 -1.107062637155
H -0.864867452473 -0.452060643677 -1.151062637155
H 0.807132547527 0.474939356323 -3.425062637155
H -0.277867452473 -0.956060643677 -3.475062637155
H 1.124132547527 -0.930060643677 -2.351062637155
O 0.710015755714 0.91820966349 1.461157089794
O -0.630984244286 -0.84979033651 1.400157089794
C 0.111015755714 -0.04079033651 2.031157089794
H 0.244015755714 -0.18079033651 3.136157089794
