12
Coordinates from XML
N -0.483275 0.2663 -1.83307
C 0.351725 -0.3307 -2.85707
H -1.25828 0.8633 -2.11007
H 0.0817247 0.8003 -1.12107
H -0.868275 -0.4527 -1.16507
H 0.803725 0.4743 -3.43907
H -0.281275 -0.9567 -3.48907
H 1.12072 -0.9307 -2.36507
O 0.712443 0.918665 1.47113
O -0.628557 -0.849335 1.41013
C 0.113443 -0.0403348 2.04113
H 0.246443 -0.180335 3.14613
