12
Coordinates from XML
N -0.484979233935 0.265980040767 -1.840071647828
C 0.350020766065 -0.331019959233 -2.864071647828
H -1.259979233935 0.862980040767 -2.117071647828
H 0.080020766065 0.799980040767 -1.128071647828
H -0.869979233935 -0.453019959233 -1.172071647828
H 0.802020766065 0.473980040767 -3.446071647828
H -0.282979233935 -0.957019959233 -3.496071647828
H 1.119020766065 -0.931019959233 -2.372071647828
O 0.713656672607 0.91889294548 1.476120965385
O -0.627343327393 -0.84910705452 1.415120965385
C 0.114656672607 -0.04010705452 2.046120965385
H 0.247656672607 -0.18010705452 3.151120965385
