12
Coordinates from XML
N -0.486683 0.26566 -1.84707
C 0.348317 -0.33134 -2.87107
H -1.26168 0.86266 -2.12407
H 0.0783168 0.79966 -1.13507
H -0.871683 -0.45334 -1.17907
H 0.800317 0.47366 -3.45307
H -0.284683 -0.95734 -3.50307
H 1.11732 -0.93134 -2.37907
O 0.71487 0.919121 1.48111
O -0.62613 -0.848879 1.42011
C 0.11587 -0.0398793 2.05111
H 0.24887 -0.179879 3.15611
