12
Coordinates from XML
N -0.490091 0.265021 -1.86108
C 0.344909 -0.331979 -2.88508
H -1.26509 0.862021 -2.13808
H 0.074909 0.799021 -1.14908
H -0.875091 -0.453979 -1.19308
H 0.796909 0.473021 -3.46708
H -0.288091 -0.957979 -3.51708
H 1.11391 -0.931979 -2.39308
O 0.717298 0.919576 1.49108
O -0.623702 -0.848424 1.43008
C 0.118298 -0.0394238 2.06108
H 0.251298 -0.179424 3.16608
