12
Coordinates from XML
N -0.491794942551 0.264700953359 -1.868083662059
C 0.343205057449 -0.332299046641 -2.892083662059
H -1.266794942551 0.861700953359 -2.145083662059
H 0.073205057449 0.798700953359 -1.156083662059
H -0.876794942551 -0.454299046641 -1.200083662059
H 0.795205057449 0.472700953359 -3.474083662059
H -0.289794942551 -0.958299046641 -3.524083662059
H 1.112205057449 -0.932299046641 -2.400083662059
O 0.718511228463 0.919803988134 1.496072799508
O -0.622488771537 -0.848196011866 1.435072799508
C 0.119511228463 -0.039196011866 2.066072799508
H 0.252511228463 -0.179196011866 3.171072799508
