12
Coordinates from XML
N -0.493499 0.264381 -1.87509
C 0.341501 -0.332619 -2.89909
H -1.2685 0.861381 -2.15209
H 0.0715011 0.798381 -1.16309
H -0.878499 -0.454619 -1.20709
H 0.793501 0.472381 -3.48109
H -0.291499 -0.958619 -3.53109
H 1.1105 -0.932619 -2.40709
O 0.719725 0.920032 1.50106
O -0.621275 -0.847968 1.44006
C 0.120725 -0.0389683 2.07106
H 0.253725 -0.178968 3.17606
