12
Coordinates from XML
N -0.495203 0.264061 -1.88209
C 0.339797 -0.332939 -2.90609
H -1.2702 0.861061 -2.15909
H 0.0697972 0.798061 -1.17009
H -0.880203 -0.454939 -1.21409
H 0.791797 0.472061 -3.48809
H -0.293203 -0.958939 -3.53809
H 1.1088 -0.932939 -2.41409
O 0.720939 0.92026 1.50605
O -0.620061 -0.84774 1.44505
C 0.121939 -0.0387405 2.07605
H 0.254939 -0.17874 3.18105
