12
Coordinates from XML
N -0.495202796859 0.264061409655 -1.882089669174
C 0.339797203141 -0.332938590345 -2.906089669174
H -1.270202796859 0.861061409655 -2.159089669174
H 0.069797203141 0.798061409655 -1.170089669174
H -0.880202796859 -0.454938590345 -1.214089669174
H 0.791797203141 0.472061409655 -3.488089669174
H -0.293202796859 -0.958938590345 -3.538089669174
H 1.108797203141 -0.932938590345 -2.414089669174
O 0.720938506391 0.920259509461 1.506048716569
O -0.620061493609 -0.847740490539 1.445048716569
C 0.121938506391 -0.038740490539 2.076048716569
H 0.254938506391 -0.178740490539 3.181048716569
