12
Coordinates from XML
N -0.496906724013 0.263741637804 -1.889092672732
C 0.338093275987 -0.333258362196 -2.913092672732
H -1.271906724013 0.860741637804 -2.166092672732
H 0.068093275987 0.797741637804 -1.177092672732
H -0.881906724013 -0.455258362196 -1.221092672732
H 0.790093275987 0.471741637804 -3.495092672732
H -0.294906724013 -0.959258362196 -3.545092672732
H 1.107093275987 -0.933258362196 -2.421092672732
O 0.722152145355 0.920487270125 1.5110366751
O -0.618847854645 -0.847512729875 1.4500366751
C 0.123152145355 -0.038512729875 2.0810366751
H 0.256152145355 -0.178512729875 3.1860366751
