12
Coordinates from XML
N -0.498610651167 0.263421865952 -1.896095676289
C 0.336389348833 -0.333578134048 -2.920095676289
H -1.273610651167 0.860421865952 -2.173095676289
H 0.066389348833 0.797421865952 -1.184095676289
H -0.883610651167 -0.455578134048 -1.228095676289
H 0.788389348833 0.471421865952 -3.502095676289
H -0.296610651167 -0.959578134048 -3.552095676289
H 1.105389348833 -0.933578134048 -2.428095676289
O 0.723365784319 0.920715030788 1.51602463363
O -0.617634215681 -0.847284969212 1.45502463363
C 0.124365784319 -0.038284969212 2.08602463363
H 0.257365784319 -0.178284969212 3.19102463363
