12
Coordinates from XML
N -0.500315 0.263102 -1.9031
C 0.334685 -0.333898 -2.9271
H -1.27531 0.860102 -2.1801
H 0.0646854 0.797102 -1.1911
H -0.885315 -0.455898 -1.2351
H 0.786685 0.471102 -3.5091
H -0.298315 -0.959898 -3.5591
H 1.10369 -0.933898 -2.4351
O 0.724579 0.920943 1.52101
O -0.616421 -0.847057 1.46001
C 0.125579 -0.0380572 2.09101
H 0.258579 -0.178057 3.19601
