12
Coordinates from XML
N -0.503722432629 0.262462550396 -1.917104686962
C 0.331277567371 -0.334537449604 -2.941104686962
H -1.278722432629 0.859462550396 -2.194104686962
H 0.061277567371 0.796462550396 -1.205104686962
H -0.888722432629 -0.456537449604 -1.249104686962
H 0.783277567371 0.470462550396 -3.523104686962
H -0.301722432629 -0.960537449604 -3.573104686962
H 1.100277567371 -0.934537449604 -2.449104686962
O 0.727006701211 0.921398312779 1.530988509222
O -0.613993298789 -0.846601687221 1.469988509222
C 0.128006701211 -0.037601687221 2.100988509222
H 0.261006701211 -0.177601687221 3.205988509222
