12
Coordinates from XML
N -0.505426359783 0.262142778544 -1.92410769052
C 0.329573640217 -0.334857221456 -2.94810769052
H -1.280426359783 0.859142778544 -2.20110769052
H 0.059573640217 0.796142778544 -1.21210769052
H -0.890426359783 -0.456857221456 -1.25610769052
H 0.781573640217 0.470142778544 -3.53010769052
H -0.303426359783 -0.960857221456 -3.58010769052
H 1.098573640217 -0.934857221456 -2.45610769052
O 0.728220340175 0.921626073442 1.535976467752
O -0.612779659825 -0.846373926558 1.474976467752
C 0.129220340175 -0.037373926558 2.105976467752
H 0.262220340175 -0.177373926558 3.210976467752
