12
Coordinates from XML
N -0.505426 0.262143 -1.92411
C 0.329574 -0.334857 -2.94811
H -1.28043 0.859143 -2.20111
H 0.0595736 0.796143 -1.21211
H -0.890426 -0.456857 -1.25611
H 0.781574 0.470143 -3.53011
H -0.303426 -0.960857 -3.58011
H 1.09857 -0.934857 -2.45611
O 0.72822 0.921626 1.53598
O -0.61278 -0.846374 1.47498
C 0.12922 -0.0373739 2.10598
H 0.26222 -0.177374 3.21098
