12
Coordinates from XML
N -0.50883421409 0.26150323484 -1.938113697635
C 0.32616578591 -0.33549676516 -2.962113697635
H -1.28383421409 0.85850323484 -2.215113697635
H 0.05616578591 0.79550323484 -1.226113697635
H -0.89383421409 -0.45749676516 -1.270113697635
H 0.77816578591 0.46950323484 -3.544113697635
H -0.30683421409 -0.96149676516 -3.594113697635
H 1.09516578591 -0.93549676516 -2.470113697635
O 0.730647618104 0.922081594769 1.545952384814
O -0.610352381896 -0.845918405231 1.484952384814
C 0.131647618104 -0.036918405231 2.115952384814
H 0.264647618104 -0.176918405231 3.220952384814
