12
Coordinates from XML
N -0.510538141244 0.261183462988 -1.945116701193
C 0.324461858756 -0.335816537012 -2.969116701193
H -1.285538141244 0.858183462988 -2.222116701193
H 0.054461858756 0.795183462988 -1.233116701193
H -0.895538141244 -0.457816537012 -1.277116701193
H 0.776461858756 0.469183462988 -3.551116701193
H -0.308538141244 -0.961816537012 -3.601116701193
H 1.093461858756 -0.935816537012 -2.477116701193
O 0.731861257068 0.922309355433 1.550940343344
O -0.609138742932 -0.845690644567 1.489940343344
C 0.132861257068 -0.036690644567 2.120940343344
H 0.265861257068 -0.176690644567 3.225940343344
