12
Coordinates from XML
N -0.510538 0.261183 -1.94512
C 0.324462 -0.335817 -2.96912
H -1.28554 0.858183 -2.22212
H 0.0544619 0.795183 -1.23312
H -0.895538 -0.457817 -1.27712
H 0.776462 0.469183 -3.55112
H -0.308538 -0.961817 -3.60112
H 1.09346 -0.935817 -2.47712
O 0.731861 0.922309 1.55094
O -0.609139 -0.845691 1.48994
C 0.132861 -0.0366906 2.12094
H 0.265861 -0.176691 3.22594
