12
Coordinates from XML
N -0.512242068398 0.260863691136 -1.95211970475
C 0.322757931602 -0.336136308864 -2.97611970475
H -1.287242068398 0.857863691136 -2.22911970475
H 0.052757931602 0.794863691136 -1.24011970475
H -0.897242068398 -0.458136308864 -1.28411970475
H 0.774757931602 0.468863691136 -3.55811970475
H -0.310242068398 -0.962136308864 -3.60811970475
H 1.091757931602 -0.936136308864 -2.48411970475
O 0.733074896032 0.922537116096 1.555928301875
O -0.607925103968 -0.845462883904 1.494928301875
C 0.134074896032 -0.036462883904 2.125928301875
H 0.267074896032 -0.176462883904 3.230928301875
