12
Coordinates from XML
N -0.512242 0.260864 -1.95212
C 0.322758 -0.336136 -2.97612
H -1.28724 0.857864 -2.22912
H 0.0527579 0.794864 -1.24012
H -0.897242 -0.458136 -1.28412
H 0.774758 0.468864 -3.55812
H -0.310242 -0.962136 -3.60812
H 1.09176 -0.936136 -2.48412
O 0.733075 0.922537 1.55593
O -0.607925 -0.845463 1.49493
C 0.134075 -0.0364629 2.12593
H 0.267075 -0.176463 3.23093
