12
Coordinates from XML
N -0.51735384986 0.25990437558 -1.973128715423
C 0.31764615014 -0.33709562442 -2.997128715423
H -1.29235384986 0.85690437558 -2.250128715423
H 0.04764615014 0.79390437558 -1.261128715423
H -0.90235384986 -0.45909562442 -1.305128715423
H 0.76964615014 0.46790437558 -3.579128715423
H -0.31535384986 -0.96309562442 -3.629128715423
H 1.08664615014 -0.93709562442 -2.505128715423
O 0.736715812924 0.923220398087 1.570892177467
O -0.604284187076 -0.844779601913 1.509892177467
C 0.137715812924 -0.035779601913 2.140892177467
H 0.270715812924 -0.175779601913 3.245892177467
