12
Coordinates from XML
N -0.519057777014 0.259584603728 -1.980131718981
C 0.315942222986 -0.337415396272 -3.004131718981
H -1.294057777014 0.856584603728 -2.257131718981
H 0.045942222986 0.793584603728 -1.268131718981
H -0.904057777014 -0.459415396272 -1.312131718981
H 0.767942222986 0.467584603728 -3.586131718981
H -0.317057777014 -0.963415396272 -3.636131718981
H 1.084942222986 -0.937415396272 -2.512131718981
O 0.737929451888 0.92344815875 1.575880135997
O -0.603070548112 -0.84455184125 1.514880135997
C 0.138929451888 -0.03555184125 2.145880135997
H 0.271929451888 -0.17555184125 3.250880135997
