12
Coordinates from XML
N -0.520762 0.259265 -1.98713
C 0.314238 -0.337735 -3.01113
H -1.29576 0.856265 -2.26413
H 0.0442383 0.793265 -1.27513
H -0.905762 -0.459735 -1.31913
H 0.766238 0.467265 -3.59313
H -0.318762 -0.963735 -3.64313
H 1.08324 -0.937735 -2.51913
O 0.739143 0.923676 1.58087
O -0.601857 -0.844324 1.51987
C 0.140143 -0.0353241 2.15087
H 0.273143 -0.175324 3.25587
