12
Coordinates from XML
N -0.522466 0.258945 -1.99414
C 0.312534 -0.338055 -3.01814
H -1.29747 0.855945 -2.27114
H 0.0425344 0.792945 -1.28214
H -0.907466 -0.460055 -1.32614
H 0.764534 0.466945 -3.60014
H -0.320466 -0.964055 -3.65014
H 1.08153 -0.938055 -2.52614
O 0.740357 0.923904 1.58586
O -0.600643 -0.844096 1.52486
C 0.141357 -0.0350963 2.15586
H 0.274357 -0.175096 3.26086
