12
Coordinates from XML
N -0.524169558476 0.258625288172 -2.001140729654
C 0.310830441524 -0.338374711828 -3.025140729654
H -1.299169558476 0.855625288172 -2.278140729654
H 0.040830441524 0.792625288172 -1.289140729654
H -0.909169558476 -0.460374711828 -1.333140729654
H 0.762830441524 0.466625288172 -3.607140729654
H -0.322169558476 -0.964374711828 -3.657140729654
H 1.079830441524 -0.938374711828 -2.533140729654
O 0.74157036878 0.924131440741 1.590844011589
O -0.59942963122 -0.843868559259 1.529844011589
C 0.14257036878 -0.034868559259 2.160844011589
H 0.27557036878 -0.174868559259 3.265844011589
