12
Coordinates from XML
N 0.799204 -0.219202 -1.61275
C -0.439045 0.382678 -2.27492
H 0.842525 0.0297298 -0.621534
H 1.65503 0.118867 -2.05944
H 0.791499 -1.23998 -1.68033
H -0.388748 1.46242 -2.17975
H -1.31934 -0.00196906 -1.77118
H -0.443756 0.09401 -3.32083
O -0.16398 -0.97671 0.657551
O -0.485738 0.768914 2.14814
C 0.174119 0.0736133 1.30248
H 1.22429 0.447463 1.09145
