12
Coordinates from XML
N 0.799203720981 -0.219201528071 -1.647792214433
C -0.439044529117 0.382678029408 -2.309962027522
H 0.842524996206 0.029729774398 -0.65657559315
H 1.655029471604 0.118866550385 -2.094484039091
H 0.791499359876 -1.239976817237 -1.715372476211
H -0.388747967084 1.462424436206 -2.214787401407
H -1.319335554805 -0.001969060058 -1.806223842369
H -0.443756343954 0.094009958599 -3.355871193046
O -0.16397961739 -0.976709933424 0.68250993924
O -0.485738021946 0.768914313433 2.173099031482
C 0.174118789186 0.073613260554 1.327443203261
H 1.224285427004 0.447463031251 1.116413432402
