12
Coordinates from XML
N 0.799204 -0.219202 -1.64779
C -0.439045 0.382678 -2.30996
H 0.842525 0.0297298 -0.656576
H 1.65503 0.118867 -2.09448
H 0.791499 -1.23998 -1.71537
H -0.388748 1.46242 -2.21479
H -1.31934 -0.00196906 -1.80622
H -0.443756 0.09401 -3.35587
O -0.16398 -0.97671 0.68251
O -0.485738 0.768914 2.1731
C 0.174119 0.0736133 1.32744
H 1.22429 0.447463 1.11641
