12
Coordinates from XML
N 0.799204 -0.219202 -1.67115
C -0.439045 0.382678 -2.33332
H 0.842525 0.0297298 -0.679937
H 1.65503 0.118867 -2.11784
H 0.791499 -1.23998 -1.73873
H -0.388748 1.46242 -2.23815
H -1.31934 -0.00196906 -1.82958
H -0.443756 0.09401 -3.37923
O -0.16398 -0.97671 0.699149
O -0.485738 0.768914 2.18974
C 0.174119 0.0736133 1.34408
H 1.22429 0.447463 1.13305
