12
Coordinates from XML
N 0.799204 -0.219202 -1.69451
C -0.439045 0.382678 -2.35668
H 0.842525 0.0297298 -0.703297
H 1.65503 0.118867 -2.14121
H 0.791499 -1.23998 -1.76209
H -0.388748 1.46242 -2.26151
H -1.31934 -0.00196906 -1.85295
H -0.443756 0.09401 -3.40259
O -0.16398 -0.97671 0.715788
O -0.485738 0.768914 2.20638
C 0.174119 0.0736133 1.36072
H 1.22429 0.447463 1.14969
