12
Coordinates from XML
N 0.799204 -0.219202 -1.72956
C -0.439045 0.382678 -2.39173
H 0.842525 0.0297298 -0.738339
H 1.65503 0.118867 -2.17625
H 0.791499 -1.23998 -1.79714
H -0.388748 1.46242 -2.29655
H -1.31934 -0.00196906 -1.88799
H -0.443756 0.09401 -3.43763
O -0.16398 -0.97671 0.740747
O -0.485738 0.768914 2.23134
C 0.174119 0.0736133 1.38568
H 1.22429 0.447463 1.17465
