12
Coordinates from XML
N 0.799203720981 -0.219201528071 -1.811318792343
C -0.439044529117 0.382678029408 -2.473488605432
H 0.842524996206 0.029729774398 -0.820102171061
H 1.655029471604 0.118866550385 -2.258010617001
H 0.791499359876 -1.239976817237 -1.878899054121
H -0.388747967084 1.462424436206 -2.378313979317
H -1.319335554805 -0.001969060058 -1.969750420279
H -0.443756343954 0.094009958599 -3.519397770956
O -0.16397961739 -0.976709933424 0.798983361329
O -0.485738021946 0.768914313433 2.289572453572
C 0.174118789186 0.073613260554 1.443916625351
H 1.224285427004 0.447463031251 1.232886854492
