9
Coordinates from XML
N 0.105860941213 -0.306224738437 -0.725524993688
C -0.121213703074 0.350632171927 -2.027199993536
H 0.689420655821 -1.147022915446 -0.826788141109
H -0.780859867878 -0.595372578448 -0.291935621883
H 0.581955072364 0.323349666954 -0.066063435779
H -0.626642622621 -0.364789847624 -2.678582731431
H 0.852140935806 0.632038624911 -2.433589173006
H -0.743274519103 1.230696322421 -1.853128134304
F -1.7922475e-05 5.1843782e-05 2.247549000208
