9
Coordinates from XML
N 0.595212651432 -0.217493299709 -1.808404012256
C -0.681549471445 0.249032366411 -1.234283829335
H 0.816373875969 -1.174144325545 -1.502390503521
H 1.377177128984 0.386993734477 -1.523786740559
H 0.564856770324 -0.220661561029 -2.836503026263
H -0.585706810346 0.229545993501 -0.147075939562
H -1.46718340835 -0.429864276233 -1.571388673248
H -0.858618152632 1.264178682142 -1.594697785504
F -0.000100773516 3.6821395e-05 2.599285038634
