9
Coordinates from XML
N 0.398134565166 -0.231997342981 -0.903459584922
C -0.45588036538 0.265661918511 -1.999076058811
H 0.6980159997 0.533048821501 -0.284983044192
H 1.246158869505 -0.686959089212 -1.266425972782
H -0.099109692241 -0.92135588422 -0.324277359628
H 0.125713105773 0.989060596064 -2.573558362826
H -1.334011239165 0.734833071181 -1.551275201277
H -0.739228071267 -0.58910660774 -2.616213340215
F -6.7406015e-05 3.9281189e-05 2.385689115119
