9
Coordinates from XML
N -0.489622432603 -0.242940156954 -0.929545283989
C 0.5606362054 0.27817698234 -1.825522638855
H -1.131822343396 -0.870982901297 -1.430423837988
H -1.052085151782 0.519076292508 -0.52848839241
H -0.085098638344 -0.773879260849 -0.146996072863
H 0.070000441166 0.828626802942 -2.630425162056
H 1.119243220905 -0.574340911609 -2.216588429643
H 1.205786151853 0.934014584667 -1.237787863667
F 8.2895041e-05 4.1130995e-05 2.272694448321
