9
Coordinates from XML
N 0.499063894063 0.425421307693 -1.280891670823
C -0.571461144384 -0.487120054279 -1.726566557651
H 0.187246640182 1.40533487167 -1.297539412947
H 1.328054982317 0.354171974466 -1.885521572589
H 0.797589582942 0.211919323342 -0.320049115689
H -0.842592671448 -0.210560196763 -2.74714917079
H -1.418279257083 -0.364872711175 -1.048543194404
H -0.180305052062 -1.505533154104 -1.686500992098
F -8.4496228e-05 -7.2024874e-05 2.511307549851
