9
Coordinates from XML
N 0.058149525169 0.255774397419 -2.042715628049
C -0.066573094674 -0.292868825614 -0.678598117744
H 1.023300900692 0.550306558023 -2.241389654275
H -0.548791897243 1.075725776539 -2.173795205558
H -0.205155613893 -0.440715890442 -2.752286472051
H 0.225200901829 0.48986461821 0.024098702288
H 0.598156337824 -1.155574609931 -0.6035346694
H -1.107800517855 -0.585470283331 -0.530262619099
F -9.842967e-06 -4.3303145e-05 2.373326546224
