9
Coordinates from XML
N 0.031977131609 0.040771394101 -2.167165705646
C -0.036602165602 -0.046687759527 -0.695761792221
H 0.86546654264 -0.438270828867 -2.532612952609
H 0.073806658693 1.018751143729 -2.482896461166
H -0.791191670169 -0.391461745515 -2.607036978631
H 0.859885663626 0.426643891806 -0.290973884928
H -0.078612759125 -1.10357873599 -0.425618156531
H -0.937738178044 0.477457532567 -0.371726022811
F -5.411387e-06 -6.903331e-06 2.49890215024
