10
Coordinates from XML
H -0.177424749192 -0.635341645217 -1.166784826173
N 9.6785e-07 3.466898e-06 -1.950004273993
H -0.814548930839 0.604365790453 -2.090494467297
H 0.820829724832 0.576121307746 -1.742937678019
H 0.171130499867 -0.545193630809 -2.799723638208
H 0.921934609259 0.440609644205 1.883184777404
N -5.030944e-06 -2.404166e-06 1.950000364306
H -0.727370754972 0.714888825634 1.85860844418
H -0.103588110564 -0.690098827068 1.200610170404
H -0.090905834331 -0.465366230916 2.857591540274
