10
Coordinates from XML
H -0.870845949257 0.537015273318 -1.757497234147
N 4.752187e-06 -2.930236e-06 -1.800000232235
H -0.181288586288 -0.967201145305 -1.516904509572
H 0.362685784262 0.013119840116 -2.757517047686
H 0.689382716017 0.417106754113 -1.168077986853
H 0.08862174669 -0.680981970286 2.559588242654
N -4.8327e-07 3.715921e-06 1.799995854897
H 0.823708331636 -0.055258483598 1.194246131372
H -0.840549150089 -0.206491110953 1.252834073352
H -0.071774206803 0.942679926011 2.193389151154
