10
Coordinates from XML
H -0.046665385474 -1.01125226048 -1.685870953371
N 2.54302e-07 5.518612e-06 -1.840000841097
H 0.953059828865 0.328888949963 -1.661126622952
H -0.257337253468 0.209844475319 -2.808656202587
H -0.649060729906 0.472442154003 -1.204334533732
H 0.900318662144 -0.486846787379 1.87116196008
N -4.913037e-06 2.657127e-06 1.839999829888
H 0.019241585179 0.706002467247 1.098597988498
H -0.746419390851 -0.674654652939 1.649602531369
H -0.173072586395 0.455462057687 2.740639882784
