10
Coordinates from XML
H 0.159208947447 0.817834262877 -1.20471503848
N -8.68602e-07 -4.463166e-06 -1.800003248224
H 0.550153077645 -0.789389214126 -1.449738776175
H -0.994389196478 -0.244015812892 -1.785914082632
H 0.285039244814 0.215632778543 -2.759586961994
H -0.522794885111 0.586921779775 1.143667090249
N 2.852839e-06 -3.203162e-06 1.800003581388
H -0.043178628544 0.41282354535 2.736055014471
H -0.410854367349 -0.937710275125 1.821216356102
H 0.976788237893 -0.061990545757 1.499011769368
