10
Coordinates from XML
H -0.23871086499 -0.993359067634 -2.119422192803
N 1.302634e-06 5.421158e-06 -2.049999621288
H -0.852414822264 0.545867347583 -1.8953892811
H 0.643400024035 0.142443233266 -1.266228133556
H 0.447707562021 0.304973163165 -2.918965657241
H 0.039451510624 -0.97098845487 2.372784067122
N -2.15194e-07 5.29909e-06 2.049998238589
H 0.541564825949 0.09477796518 1.186164748862
H -0.974043796563 0.26139670709 1.872623428036
H 0.393030451919 0.614740155349 2.768452232389
