10
Coordinates from XML
H -0.91384027319 0.461685968502 -2.077509367025
N 4.986667e-06 -2.519301e-06 -2.059999904787
H 0.716250125492 0.647809299361 -2.400316814023
H 0.222054344751 -0.281092164484 -1.100713251099
H -0.024533493088 -0.828368093816 -2.661461896911
H 0.449825517381 -0.326791065516 2.919900668543
N -2.454349e-06 1.783124e-06 2.059995307514
H 0.51637704668 -0.352983651608 1.249294164191
H -0.963873767284 -0.344108639124 2.027005924365
H -0.002294685659 1.023858575381 2.043864448088
