66
Coordinates from XML
Li 0.0 0.0 -1.850686124538
Cl 0.0 0.0 0.371313875462
Li 0.0 0.0 -1.983510487543
Cl 0.0 0.0 0.397963196668
Li 0.0 0.0 -2.080915020413
Cl 0.0 0.0 0.417506032218
Li 0.0 0.0 -2.142899723149
Cl 0.0 0.0 0.429942382114
Li 0.0 0.0 -2.16946459575
Cl 0.0 0.0 0.435272246355
Li 0.0 0.0 -2.160609638216
Cl 0.0 0.0 0.433495624942
Li 0.0 0.0 -2.116334850548
Cl 0.0 0.0 0.424612517873
Li 0.0 0.0 -2.036640232745
Cl 0.0 0.0 0.40862292515
Li 0.0 0.0 -1.921525784807
Cl 0.0 0.0 0.385526846772
Li 0.0 0.0 -1.770991506735
Cl 0.0 0.0 0.355324282739
Li 0.0 0.0 -2.018930317677
Cl 0.0 0.0 0.405069682323
Li 0.0 0.0 -2.271296607387
Cl 0.0 0.0 0.455703392613
Li 0.0 0.0 -2.439540800527
Cl 0.0 0.0 0.489459199473
Li 0.0 0.0 -2.523662897097
Cl 0.0 0.0 0.506337102903
Li 0.0 0.0 2.103052414247
Cl 0.0 0.0 -0.421947585753
Li 0.0 0.0 3.028395476516
Cl 0.0 0.0 -0.607604523484
Li 0.0 0.0 4.037860635355
Cl 0.0 0.0 -0.810139364645
Li 0.0 0.0 -1.974294103171
Cl 0.0 0.0 0.396114060094
Li 0.0 0.0 -2.053265867298
Cl 0.0 0.0 0.411958622498
Li 0.0 0.0 -2.087601416918
Cl 0.0 0.0 0.418847562674
Li 0.0 0.0 -2.077300752032
Cl 0.0 0.0 0.416780880621
Li 0.0 0.0 -2.02236387264
Cl 0.0 0.0 0.40575857634
Li 0.0 0.0 -1.92279077874
Cl 0.0 0.0 0.385780649831
Li 0.0 0.0 -1.778581470335
Cl 0.0 0.0 0.356847101094
Li 0.0 0.0 2.118503411577
Cl 0.0 0.0 -0.425047608832
Li 0.0 0.0 2.753711079553
Cl 0.0 0.0 -0.552493002079
Li 0.0 0.0 3.433554962037
Cl 0.0 0.0 -0.688894017555
Li 0.0 0.0 4.158035059026
Cl 0.0 0.0 -0.834250655259
Li 0.0 0.0 4.927151370522
Cl 0.0 0.0 -0.988562915192
Li 0.0 0.0 1.850686124538
Cl 0.0 0.0 -0.371313875462
Li 0.0 0.0 2.691907090237
Cl 0.0 0.0 -0.540092909763
Li 0.0 0.0 3.617250152505
Cl 0.0 0.0 -0.725749847495
Li 0.0 0.0 4.626715311344
Cl 0.0 0.0 -0.928284688656
