12
Coordinates from XML
H -0.018934386379 1.023388658941 -2.9235238533
N -4.0132193e-05 9.2939418e-05 -2.956461332945
H 0.955651102198 -0.317856927897 -3.140974195319
H -0.317606428979 -0.376204598063 -2.058630613694
H -0.619272660755 -0.328855444085 -3.702713452916
C -0.511026642503 1.275114768146 1.383173802824
C 0.035078511325 -0.102791249344 0.868016632654
O -0.649139400647 -1.150058609397 1.187229584406
O 1.124465605959 -0.034335034843 0.174110586703
H -1.441639463614 1.144309783897 1.948803262775
H 0.249509564633 1.751010171811 2.020036195661
H -0.683889069831 1.941448348939 0.525116706317
