12
Coordinates from XML
H -0.738892296434 0.531145712786 -3.656069416007
N -7.6797058e-05 7.4057528e-05 -3.186292282823
H -0.40978537136 -0.812011252947 -2.716037902029
H 0.685587770117 -0.316025525985 -3.878024416401
H 0.462710559493 0.597239158722 -2.495083273527
C -1.044230660217 0.992562839255 0.769876491344
C 0.083057184482 -0.077829537089 0.983710581027
O 0.633262371783 -0.556619471118 -0.081584886907
O 0.336624516932 -0.365653550855 2.218950250435
H -1.195557552956 1.198744307398 -0.296742572058
H -1.980845338509 0.62642618843 1.216175003929
H -0.770431567104 1.919021845378 1.296043391789
