12
Coordinates from XML
H -0.790458007868 0.64731272412 -2.901861782772
N -2.2778882e-05 8.5348173e-05 -2.971753646406
H -0.342286135476 -0.930146884162 -3.228671218127
H 0.651937454064 0.333607005672 -3.687476601632
H 0.480638382813 -0.05036824714 -2.068998157717
C -0.340036884226 1.148795964769 1.733891088576
C 0.020760483909 -0.091630849521 0.843155819494
O -0.944540516518 -0.902932212391 0.56602036481
O 1.261028134805 -0.164306545111 0.483419119563
H -1.406974084604 1.155133130979 1.988236726359
H 0.263140482882 1.122077349633 2.653645753919
H -0.077000364153 2.071568702799 1.195889133564
