12
Coordinates from XML
H -0.889049706669 0.429759411448 -3.732915285764
N 8.2609887e-05 2.2861476e-05 -3.462090210717
H 0.644932764137 0.725901596213 -3.136896128638
H -0.16228003073 -0.674603305889 -2.709052298498
H 0.406640583481 -0.480924289409 -4.269523577728
C 1.009367008991 0.319856000427 0.059977103459
C -0.083276052167 -0.021846193509 1.133109664523
O -1.226992706183 0.561573807054 0.997635307789
O 0.28969255717 -0.858877144098 2.045923829659
H 0.621265487245 1.020756365175 -0.689157557466
H 1.88575234359 0.756641943846 0.561626632449
H 1.340417926006 -0.607781377347 -0.429959653927
