12
Coordinates from XML
H -0.424590594481 0.87261238312 -3.073714657055
N 6.4209076e-05 8.9528374e-05 -3.40074396119
H 1.001538332146 0.145488887559 -3.55692160738
H -0.132898550099 -0.729734806995 -2.694893032045
H -0.443833821459 -0.287923142877 -4.277414611826
C 0.803028982622 1.212574511477 0.994999640797
C -0.066046520139 -0.092872436148 1.047523725643
O -0.88050922399 -0.203803874372 2.043096276043
O 0.134887217413 -0.92301580433 0.076213416192
H 0.570760057447 1.875541549213 1.837384770033
H 1.868605660788 0.939557653327 1.017216821564
H 0.61796517705 1.734558763531 0.044511519349
