12
Coordinates from XML
H -0.565961243101 -0.34178208973 -4.33588547023
N -9.6473155e-05 3.1313889e-05 -3.553877376128
H 0.436221479644 0.889800297024 -3.811599417708
H -0.598347295126 0.13795941324 -2.734353134009
H 0.727645905729 -0.685885745194 -3.333747850544
C -1.286312748183 0.384276950759 1.647217918702
C 0.102276706821 -0.033010631314 1.047273636829
O 0.923174518929 -0.623728022034 1.849769574163
O 0.271805522329 0.267158591186 -0.199367656584
H -1.367075288567 0.086492832952 2.699780925813
H -1.40721121955 1.47410258603 1.556945501365
H -2.091018037066 -0.084574645062 1.061751079608
