12
Coordinates from XML
H 0.015498723939 -0.130716416381 -2.814060606473
N -1.5742136e-05 3.3997557e-05 -3.829560301499
H -0.502584381663 -0.777942263429 -4.26620724115
H -0.472959862006 0.880305874307 -4.053152502803
H 0.959984066271 0.028476027136 -4.184721685678
C -0.197640026573 0.421126681422 2.5490126787
C 0.012856854179 -0.027871359538 1.060276783902
O -0.51545472252 0.721823668387 0.15161610681
O 0.699144258249 -1.113643614715 0.908407416457
H -0.77258460148 1.353685052848 2.602496062602
H -0.724645885271 -0.374596741509 3.096346693815
H 0.782406012159 0.556359231163 3.030017626694
