12
Coordinates from XML
H 0.506878179549 0.889582004924 -4.127487511289
N -9.4154258e-05 -7.0673793e-05 -4.136041107472
H 0.655674281931 -0.764841378107 -4.319279689436
H -0.449096498324 -0.145781449522 -3.227353342142
H -0.713783071172 0.020845007679 -4.870043051708
C -1.179111621051 -0.84709693691 1.167663559508
C 0.09280964135 0.065259393029 1.277504223768
O 0.55127212127 0.274887148798 2.466069889426
O 0.544019386779 0.512364366207 0.150799735246
H -1.496906849455 -1.201870950524 2.155706293783
H -1.993589109083 -0.277866653549 0.695340819215
H -0.956528215641 -1.704131757985 0.514906496245
