12
Coordinates from XML
H 0.62319621515 -0.532122468018 -3.414630317851
N 1.0032658e-05 -1.5875654e-05 -4.028696728196
H -0.756453049841 -0.607346023633 -4.356410850826
H -0.396226440797 0.78982272611 -3.511299559411
H 0.529584264147 0.349530299391 -4.832386217274
C 0.18203359314 -0.245922375293 2.653707166393
C -0.01977608031 0.021692566794 1.120769515826
O -1.178465856017 0.462163979658 0.759877674434
O 1.009788766522 -0.234098947119 0.38082152884
H -0.72239504807 0.00606653474 3.220802638834
H 0.435477109393 -1.305639673643 2.806190269232
H 1.031732960935 0.350217533546 3.018086136695
