12
Coordinates from XML
H 0.931581676371 0.425053750859 -3.549200640988
N -6.1481193e-05 8.9015048e-05 -3.55389108663
H -0.711248653073 0.736715611087 -3.545120991927
H -0.110473925805 -0.570954175901 -4.396664458389
H -0.110014041488 -0.590417625391 -2.724577797166
C -0.72921922712 1.173488252757 1.542490866015
C 0.058414664067 -0.08920097439 1.045005679147
O 0.474958555199 -0.064683526036 -0.176759463811
O 0.202231192356 -1.025871538672 1.925301740746
H -0.799951988364 1.931122826455 0.752507586503
H -1.737819253387 0.869486815643 1.859972484779
H -0.221557278275 1.595233396095 2.422578486826
