12
Coordinates from XML
H -0.469689249591 0.391365474425 -3.548176482875
N -9.8328369e-05 -2.2921681e-05 -2.726668424424
H -0.657781669748 -0.58581765222 -2.204384970593
H 0.797640721737 -0.567194737983 -3.027461922907
H 0.329391025638 0.761593450576 -2.126730546719
C -1.301669525516 -0.258836872587 1.429780399381
C 0.10234884722 0.014500112928 0.784596670959
O 0.720660955214 -1.007454376813 0.294577139646
O 0.488700849536 1.248421279155 0.818164240296
H -1.571786986834 -1.319114922736 1.352748807498
H -1.280015180097 0.045333780952 2.486897596221
H -2.059736051859 0.359109421839 0.926172060109
