12
Coordinates from XML
H 0.680296000404 0.718523221956 -3.878941521202
N 9.6458144e-05 -3.1810472e-05 -3.615155152941
H 0.142112677975 -0.833105173339 -4.193344581577
H 0.126265392636 -0.243680433381 -2.628613243783
H -0.948221812705 0.358205314265 -3.759747025588
C 1.292902165962 -0.366499827909 1.66268257932
C -0.101995405552 0.033071872303 1.065316725404
O -0.780168769051 0.913227992338 1.722755754112
O -0.421016799673 -0.57327591413 -0.031735601446
H 1.504682403221 0.195190069854 2.580691534909
H 1.300261893866 -1.445995953894 1.875095887266
H 2.077027100695 -0.173911691938 0.915553582994
