12
Coordinates from XML
H 0.354127154314 0.95687166666 -3.467898989874
N -0.000106650755 -4.721368e-05 -3.553926123936
H -1.010509403256 -0.006157052303 -3.387999038712
H 0.193260664962 -0.352177506489 -4.495818648643
H 0.462729574104 -0.59863251348 -2.863979417427
C -1.351137194357 -0.539861462859 1.097450237888
C 0.106303562001 0.041322601631 1.079167269311
O 0.748834236647 -0.048016314206 -0.037073239414
O 0.506462369294 0.549483755323 2.199257116908
H -1.629268606593 -0.93900662802 0.114387214811
H -1.414579978922 -1.335089673925 1.855126006549
H -2.054724843272 0.252212327597 1.393638305351
