12
Coordinates from XML
H -0.92855975036 -0.410110093257 -3.336090552937
N 3.1094473e-05 -1.5978307e-05 -3.201487953491
H -0.097090048761 0.956335253481 -2.848723648332
H 0.526322607014 -0.561272254325 -2.525798064224
H 0.499360887298 0.014943132618 -4.095352693258
C 0.335571359407 -0.225352645402 2.376172554848
C -0.026316923614 0.011639477497 0.86782433698
O -0.040411572054 -1.03157265293 0.107344373485
O -0.271154880997 1.241512279698 0.550927885598
H 0.515210071738 -1.288665451975 2.576628687442
H 1.232395450167 0.359353299699 2.629768637231
H -0.485525133331 0.142389973541 3.00918894987
