12
Coordinates from XML
H -0.170508002499 -1.006854877104 -3.447113317594
N 0.000101736371 -4.4797966e-05 -3.523282744195
H -0.894305071467 0.498466760607 -3.52563605311
H 0.562712696047 0.312014012853 -2.726642049376
H 0.502490662294 0.196096590484 -4.393732118281
C 1.300151546036 -0.649505422766 1.146712878827
C -0.101967567393 0.051555597238 1.07729976739
O -0.670815358697 0.316388119716 2.20561528551
O -0.537161890394 0.286792728029 -0.11778411644
H 1.613144079541 -0.804032614852 2.186541650097
H 1.247921640424 -1.616557347629 0.624632351912
H 2.042034619441 -0.031741722609 0.619340755273
