12
Coordinates from XML
H -0.657682808591 -0.762042320361 -3.610696369984
N -0.000103529889 1.687411e-06 -3.798989817666
H -0.435939317821 0.678906995825 -4.429559082827
H 0.248279768954 0.461638624767 -2.919361904896
H 0.844864021176 -0.378570968946 -4.236323524926
C -1.378799512039 -0.037300040102 1.624303124771
C 0.106434793022 0.006400925196 1.1199103941
O 0.311696619171 0.575846179598 -0.020449052753
O 0.969388296427 -0.54168430526 1.912292831426
H -2.05185448121 0.457083201401 0.913199003224
H -1.684282883052 -1.085377134053 1.761050264322
H -1.443864356555 0.454074887158 2.606372922395
