16
Coordinates from XML
N -0.24417991379 0.434564293444 -2.195919420162
C 0.279492760543 -0.497494333998 -3.212981534866
H -0.206799241441 1.408172720308 -2.525202059354
H 0.29898247404 0.381692068847 -1.324105702494
H -1.223719010713 0.223861860024 -1.963482886568
H 1.316516450079 -0.223009799711 -3.415037561204
H -0.335673371479 -0.394226795784 -4.108898637931
H 0.2130829523 -1.508103084884 -2.805509732157
N 0.329286316719 -0.217566065473 3.233434008144
C -0.376957555619 0.248970241165 2.024738361021
H 0.690808017597 -1.172588982195 3.11107785452
H -0.293480155727 -0.224947348346 4.051961617611
H 1.128582059926 0.389492033633 3.458213631776
H -1.209441547714 -0.432633470661 1.84041985156
H 0.3335767301 0.234005674413 1.19607793566
H -0.734436911657 1.262369534539 2.217102500598
