16
Coordinates from XML
N -0.642727733023 0.091827173975 -2.59750133231
C 0.735898594335 -0.105190048036 -2.10969464545
H -1.104367699232 0.871797374486 -2.111422359391
H -1.216612401128 -0.748634222549 -2.448635491142
H -0.657553880405 0.302326422998 -3.604173747505
H 0.684076830428 -0.32393440018 -1.041494316303
H 1.290730860057 0.816489224318 -2.295246486798
H 1.168908353484 -0.941882680325 -2.661257486435
N 0.029926573778 0.194281129419 3.029277841791
C -0.034066937974 -0.222469679461 1.615203836037
H 0.728037925674 0.936276764898 3.170064053062
H 0.286634050685 -0.592117471128 3.640472182698
H -0.876217581886 0.556116575311 3.3546960024
H 0.952235523482 -0.594587529847 1.331791962698
H -0.309465616866 0.651366225763 1.021632114669
H -0.788521710211 -1.007117023816 1.532136865183
