16
Coordinates from XML
N 0.083901192831 -0.181129512105 -2.03160385454
C -0.096157901489 0.207431478568 -3.443687697334
H 0.576729416386 -1.080148194423 -1.950219022355
H -0.820500828919 -0.279476058987 -1.551744552482
H 0.632596926236 0.520292836482 -1.516959529742
H -0.682672708987 -0.572721880928 -3.932510411879
H 0.894067250239 0.295012084675 -3.894847088592
H -0.622073426009 1.163902517964 -3.46238507319
N 0.325673333307 -0.189386214207 2.114324277446
C -0.372903134247 0.216903590517 3.348950218189
H 1.342201304314 -0.057597851185 2.198231676002
H 0.008005013392 0.360980692882 1.305582590562
H 0.158945204339 -1.181112738382 1.898455492631
H -0.157641648672 1.272929261957 3.522324968627
H 0.006195531736 -0.40029998366 4.165715153451
H -1.441594566346 0.053829622686 3.197032200913
