7
Coordinates from XML
O -0.963238420304 -0.626832065607 -0.614760494058
O 1.111844706071 0.327761574809 -0.814041301749
C -0.145449401835 0.292730701548 -0.884113865179
H -0.626327501601 1.260304625141 -1.255413226273
O 0.023705543968 -0.056597525864 1.905462138313
H -0.89295332958 0.234690436966 1.908528448087
H 0.51640815962 0.664220150096 2.308931567828
