7
Coordinates from XML
O -0.165465434998 1.113872247391 -1.192739725285
O 0.464105866157 -1.058504850994 -0.816774887598
C -0.292317975506 -0.054210364715 -0.73840807961
H -1.258587550781 -0.233288284264 -0.155689908768
O -0.026169302894 -0.059980983742 2.282791411498
H 0.889611607849 0.18637519505 2.122243827618
H -0.474758534418 0.765607593793 2.488443476901
