7
Coordinates from XML
O 0.458054632049 0.579314857311 -0.191794186255
O -0.61887511788 -0.751074129735 -1.717316816983
C 0.157401541151 0.168117613991 -1.343944500242
H 0.677747177049 0.723885823155 -2.195806212543
O -0.06423374573 -0.00163289227 2.726251008698
H 0.554522701865 0.704420926444 2.935416095741
H 0.465350908501 -0.67819489693 2.293902170542
