7
Coordinates from XML
O -0.321364118083 -0.71773088258 -2.058896618988
O 0.301899317957 0.952303426042 -0.616863354004
C 0.019053588963 -0.229591574914 -0.948598640497
H 0.082006092286 -0.98858425186 -0.096968815592
O -0.005049863756 0.053697022154 3.050846533231
H 0.325506973814 -0.006152908113 2.149585343019
H -0.245315380059 -0.846602488431 3.289289069108
