7
Coordinates from XML
O 0.262627057314 0.445259341742 -0.259383032438
O 0.075572611912 -0.363668687923 -2.396572288745
C -0.331031860748 -0.079871792215 -1.238531734706
H -1.425241362212 -0.343839160543 -1.042743442503
O 0.037939222699 -0.043636525741 3.27295187445
H -0.264669279805 -0.070720829676 2.360364287041
H -0.338146875005 0.763220181496 3.637181295422
