7
Coordinates from XML
O 0.833963908583 -0.200913649599 -1.878375956626
O -1.037868180837 0.132744009794 -0.597029385497
C 0.199588904566 0.066732583033 -0.823454325206
H 0.859399841325 0.287292298822 0.082806784797
O 0.054161174057 0.036810101371 2.741391046993
H -0.000717524996 -0.923448290956 2.737687216973
H -0.858621575875 0.339281190395 2.762849419062
