7
Coordinates from XML
O -0.109544073645 -0.581535233109 -2.306777750596
O -0.242962356848 0.568462971655 -0.327728602458
C 0.345040861982 0.012789143205 -1.293339606445
H 1.485564649651 0.055019961888 -1.241106401359
O 0.00187324811 -0.062017561014 3.249929018584
H 0.447222588561 0.698625747328 2.864952016109
H -0.476326618284 0.285806127381 4.008523204939
