12
Coordinates from XML
N 0.80078 0.690359 -2.73222
C -0.433401 -0.114044 -2.42282
H 0.778023 1.03453 -3.70693
H 1.65158 0.115364 -2.61287
H 0.871967 1.50758 -2.10308
H -0.462398 -0.938396 -3.14196
H -1.29078 0.542569 -2.59978
C -0.499803 -0.675374 -0.991081
H 0.343908 -1.34206 -0.796714
H -1.42296 -1.24306 -0.850465
H -0.481133 0.133408 -0.256483
Cl -8.73738e-05 -7.34984e-05 2.72872
