12
Coordinates from XML
N 0.250674 -0.507577 -0.753297
C 0.16749 -0.382893 -2.25114
H 0.668362 -1.41441 -0.484555
H -0.689828 -0.446996 -0.328441
H 0.834456 0.247108 -0.355318
H -0.433579 -1.22573 -2.60597
H 1.18741 -0.48744 -2.63376
C -0.441967 0.936038 -2.75942
H -1.46543 1.05556 -2.39563
H -0.46472 0.945208 -3.85197
H 0.149401 1.79119 -2.42309
Cl -2.52159e-05 5.07402e-05 2.45567
