12
Coordinates from XML
N 0.280752032572 -0.371166654011 -0.84557475724
C 0.400243276051 0.379209299199 -2.145057909141
H 1.046326005771 -0.110744935238 -0.201287590015
H 0.327542944445 -1.391260682944 -1.00662593576
H -0.61807621395 -0.15801042352 -0.381451693001
H 1.381375632247 0.133879815349 -2.56310459658
H 0.375494818057 1.444920032628 -1.897655252359
C -0.695194243487 0.063721818638 -3.179394104919
H -0.681529726828 -0.995548133922 -3.447461954328
H -0.535392437573 0.64815133854 -4.088881440011
H -1.683749864755 0.310378768248 -2.784388753603
Cl -2.6733948e-05 4.1754801e-05 2.637576663163
