12
Coordinates from XML
N 0.280752 -0.371167 -0.845575
C 0.400243 0.379209 -2.14506
H 1.04633 -0.110745 -0.201288
H 0.327543 -1.39126 -1.00663
H -0.618076 -0.15801 -0.381452
H 1.38138 0.13388 -2.5631
H 0.375495 1.44492 -1.89766
C -0.695194 0.0637218 -3.17939
H -0.68153 -0.995548 -3.44746
H -0.535392 0.648151 -4.08888
H -1.68375 0.310379 -2.78439
Cl -2.67339e-05 4.17548e-05 2.63758
