12
Coordinates from XML
N 0.932685 -0.209107 -1.02908
C 0.205498 -0.129922 -2.34473
H 1.90133 -0.543648 -1.1663
H 0.454209 -0.861364 -0.385388
H 0.973141 0.719749 -0.577053
H 0.228586 -1.1337 -2.78
H 0.78065 0.547798 -2.98305
C -1.25101 0.359398 -2.25243
H -1.84568 -0.309862 -1.62589
H -1.70349 0.388032 -3.24677
H -1.29571 1.36533 -1.82792
Cl -9.67562e-05 2.10966e-05 2.41022
