12
Coordinates from XML
N 0.498955 1.10444 -1.4935
C 0.0701146 -0.328855 -1.32685
H 0.961433 1.44978 -0.63567
H -0.316307 1.71004 -1.68666
H 1.16459 1.19808 -2.27893
H -0.6029 -0.359593 -0.464481
H 0.972135 -0.903305 -1.09463
C -0.631776 -0.942542 -2.55164
H -1.54152 -0.388264 -2.79503
H -0.908267 -1.98001 -2.34796
H 0.0275821 -0.929725 -3.42295
Cl -5.20453e-05 -0.000118609 2.35344
