12
Coordinates from XML
N -0.555300965644 -1.060278084604 -1.419914579427
C 0.501352137968 0.008925746489 -1.49919936172
H -0.258266534833 -1.821581771907 -0.786498305156
H -0.73376793663 -1.468038825657 -2.352973751036
H -1.443542390398 -0.67086017949 -1.061977600857
H 1.416684239959 -0.476251911151 -1.851818238828
H 0.66118991776 0.371088475448 -0.478978812033
C 0.157517890843 1.193735108595 -2.419727395769
H 0.002899832408 0.854299698984 -3.446848022573
H 0.973118490908 1.921098393697 -2.419648276002
H -0.749973630149 1.698368713325 -2.079264242103
Cl 6.2009757e-05 0.000111701042 2.330690940553
