12
Coordinates from XML
N -0.555301 -1.06028 -1.41991
C 0.501352 0.00892575 -1.4992
H -0.258267 -1.82158 -0.786498
H -0.733768 -1.46804 -2.35297
H -1.44354 -0.67086 -1.06198
H 1.41668 -0.476252 -1.85182
H 0.66119 0.371088 -0.478979
C 0.157518 1.19374 -2.41973
H 0.00289983 0.8543 -3.44685
H 0.973118 1.9211 -2.41965
H -0.749974 1.69837 -2.07926
Cl 6.20098e-05 0.000111701 2.33069
