12
Coordinates from XML
N 0.406780555057 -0.512045081923 -3.072505592402
C 0.248404281557 -0.29443894737 -1.591437323652
H 1.051599926249 -1.298318734318 -3.259616938893
H 0.78883271026 0.333868129771 -3.527682138794
H -0.504195028827 -0.730882367788 -3.50950872967
H 1.248419838003 -0.10105378872 -1.191260667435
H -0.126734494055 -1.233331519306 -1.172735083993
C -0.695099077762 0.85784616971 -1.202326162914
H -0.332883457566 1.807561572026 -1.603499968626
H -0.753929088722 0.946868059354 -0.114725212852
H -1.702918322721 0.679630410633 -1.585276038754
Cl -4.107474e-05 5.183924e-05 2.649183599162
