12
Coordinates from XML
N 0.750145995251 -0.929361265918 -1.376744029576
C 0.343311115268 0.409142921511 -1.932523312353
H 1.778611560048 -1.034439875883 -1.392428469493
H 0.338858009848 -1.697004094442 -1.933776685961
H 0.430223544424 -1.031980735186 -0.399064693554
H 0.739560681792 0.462515321527 -2.951202828612
H 0.836723967419 1.16901012968 -1.318759912189
C -1.173809151327 0.668433940692 -1.954462764507
H -1.685164606345 -0.075192138435 -2.570608669604
H -1.381903413596 1.657524200021 -2.369985243453
H -1.588446607913 0.628419591432 -0.944222334635
Cl -7.6562292e-05 0.000100741532 2.285209150193
