12
Coordinates from XML
N -0.789983221924 0.636360334062 -1.087463108948
C -0.191792172071 0.064344517669 -2.344827043604
H -1.635303340848 1.190878685248 -1.304193883507
H -0.113157476225 1.253752305922 -0.608450830984
H -1.058035423317 -0.118339973344 -0.433770920353
H 0.036925717997 0.910603868343 -2.999886985181
H -0.968074377149 -0.54837725008 -2.813354419012
C 1.076314986504 -0.782076013905 -2.133063983557
H 1.868299709894 -0.185375013221 -1.673925619881
H 1.443839688487 -1.157906023313 -3.091155362843
H 0.867108245077 -1.638835012098 -1.487844909865
Cl 8.1828423e-05 -6.6546848e-05 2.387492701989
