12
Coordinates from XML
N -0.789983 0.63636 -1.08746
C -0.191792 0.0643445 -2.34483
H -1.6353 1.19088 -1.30419
H -0.113157 1.25375 -0.608451
H -1.05804 -0.11834 -0.433771
H 0.0369257 0.910604 -2.99989
H -0.968074 -0.548377 -2.81335
C 1.07631 -0.782076 -2.13306
H 1.8683 -0.185375 -1.67393
H 1.44384 -1.15791 -3.09116
H 0.867108 -1.63884 -1.48784
Cl 8.18284e-05 -6.65468e-05 2.38749
