12
Coordinates from XML
N 0.406518 -0.540497 -3.01525
C 0.142091 -0.35428 -1.54508
H 0.902196 -1.43135 -3.1876
H 0.990201 0.229751 -3.38234
H -0.479801 -0.556296 -3.54716
H 1.11412 -0.37967 -1.043
H -0.449149 -1.21551 -1.21909
C -0.594687 0.94645 -1.17817
H -0.0157542 1.82016 -1.4873
H -0.746534 1.00246 -0.0973954
H -1.57315 0.987567 -1.66296
Cl -4.1797e-05 5.4412e-05 2.59234
