12
Coordinates from XML
N 0.8292468565 -0.863260387079 -2.08365297662
C -0.441708219158 -0.287434285489 -1.518766982028
H 0.815631758361 -1.896001488421 -2.035805504368
H 1.650537651467 -0.526516924857 -1.553743578559
H 0.947598532319 -0.587651884142 -3.072981460006
H -0.519076067588 -0.643251679311 -0.486789033047
H -1.265904787893 -0.708360906277 -2.102788149535
C -0.524256766308 1.249442013864 -1.542516789419
H 0.285923505082 1.690133782578 -0.956429239527
H -1.473975065479 1.583226610263 -1.117211382651
H -0.457864534204 1.625320025336 -2.566440071071
Cl -9.0429931e-05 8.8866775e-05 2.285286510717
