12
Coordinates from XML
N 1.009313403489 -0.649908841402 -2.270161992735
C 0.129749774312 0.240121530565 -1.43337501285
H 1.927707982138 -0.787930285137 -1.815705820064
H 1.170047781379 -0.233141841904 -3.202464747903
H 0.571783273162 -1.57728047875 -2.401642962456
H 0.664943061502 1.186385643241 -1.307984968155
H 0.028998582602 -0.243543480049 -0.456913399177
C -1.266540041021 0.510788911136 -2.022001376676
H -1.188353660843 1.002677503537 -2.994643359072
H -1.837778378138 1.161493529764 -1.355269080245
H -1.821880054092 -0.421994784312 -2.146993944814
Cl -0.000105356502 7.012906e-05 2.546783313735
