12
Coordinates from XML
N 0.284957361373 -0.009852139426 -3.380079036648
C 0.491798226006 0.085608738891 -1.892092891575
H 1.181931829694 0.102796128713 -3.881851998023
H -0.362518319822 0.726622061617 -3.707339930826
H -0.114528193369 -0.928461911646 -3.635628233542
H 0.943813817696 1.063041967708 -1.69747409245
H 1.207223128601 -0.697172886853 -1.621944666995
C -0.786200210136 -0.069410314493 -1.048258686411
H -1.511276885597 0.709551925283 -1.296415022227
H -0.548600177026 0.011640955273 0.015338328222
H -1.249027960724 -1.044058128598 -1.221357520739
Cl -2.6533459e-05 1.645669e-06 2.853847698054
