12
Coordinates from XML
N 0.495121 0.232385 -0.821416
C 0.34304 0.254112 -2.31888
H 1.33702 0.75807 -0.531772
H 0.58639 -0.738094 -0.477092
H -0.326572 0.661788 -0.364064
H 1.25563 -0.182619 -2.73603
H 0.284617 1.30598 -2.61504
C -0.884383 -0.502797 -2.85729
H -0.840761 -1.55887 -2.57996
H -0.920097 -0.437309 -3.94757
H -1.80821 -0.0759586 -2.45921
Cl -4.97094e-05 -2.26784e-05 2.55799
