12
Coordinates from XML
N 0.002906172473 0.160263814252 -0.869377618678
C -0.054099555267 -0.560751858591 -2.189561483532
H -0.070668396983 -0.508357331878 -0.084163329725
H -0.773071919693 0.838618507459 -0.789305088541
H 0.893958289986 0.675341130549 -0.772117677219
H -1.002180017809 -1.106869848861 -2.211214800795
H 0.770708556172 -1.279948398027 -2.192362388124
C 0.047614537269 0.346332176345 -3.429004855552
H -0.773495321824 1.067046853455 -3.45019156834
H -0.00111879146 -0.253655915975 -4.34109095091
H 0.99272823003 0.894844676579 -3.431293860631
Cl -6.91938e-07 -2.0832169e-05 2.774001413976
