12
Coordinates from XML
N -0.450059008972 -0.525137737644 -0.869925604694
C -0.297882520537 -0.225472270627 -2.337250250008
H -1.195791216832 -1.224358245263 -0.714996298929
H -0.696449664267 0.330957600294 -0.34541524565
H 0.430602071185 -0.900933158701 -0.48011555158
H -1.26939350437 0.135051497728 -2.689044663896
H -0.070723544486 -1.175041649304 -2.831493836491
C 0.790763797581 0.80775097171 -2.678814301163
H 0.577515164206 1.767456688152 -2.201750488352
H 0.835547081598 0.96600515856 -3.759190052195
H 1.771747003154 0.462353613492 -2.343428389086
Cl 4.5282845e-05 5.3704996e-05 2.512523861749
