12
Coordinates from XML
N -0.5352 -0.124938 -3.20778
C -0.426784 -0.00119839 -1.71147
H -1.52373 -0.217709 -3.49629
H -0.0215012 -0.956602 -3.54419
H -0.14016 0.709286 -3.67335
H -0.889825 -0.896581 -1.2855
H -1.01585 0.874994 -1.42365
C 1.0087 0.142751 -1.1748
H 1.61211 -0.727661 -1.44385
H 0.997858 0.227081 -0.0852896
H 1.48668 1.03723 -1.5817
Cl 5.33409e-05 1.31425e-05 2.75151
