12
Coordinates from XML
N -0.183671674391 0.614723145076 -0.967720023611
C 0.154164875381 0.394131405196 -2.417962913763
H -0.101841153194 1.6155535105 -0.721404617386
H 0.45610399944 0.07892161988 -0.357537663844
H -1.151389861113 0.311228054764 -0.76734473735
H 1.173255522629 0.764648490288 -2.565413350332
H -0.536479685861 1.011598597317 -3.000461226876
C 0.063110828536 -1.068123387041 -2.890072179328
H 0.752894739096 -1.701000998126 -2.326366574051
H 0.322145453006 -1.139781999494 -3.949330316039
H -0.950463935973 -1.455089586973 -2.759556082387
Cl 2.0431437e-05 -6.1944843e-05 2.683061786266
