12
Coordinates from XML
N -0.183672 0.614723 -0.96772
C 0.154165 0.394131 -2.41796
H -0.101841 1.61555 -0.721405
H 0.456104 0.0789216 -0.357538
H -1.15139 0.311228 -0.767345
H 1.17326 0.764648 -2.56541
H -0.53648 1.0116 -3.00046
C 0.0631108 -1.06812 -2.89007
H 0.752895 -1.701 -2.32637
H 0.322145 -1.13978 -3.94933
H -0.950464 -1.45509 -2.75956
Cl 2.04314e-05 -6.19448e-05 2.68306
