12
Coordinates from XML
N 0.190594 1.02187 -2.70807
C -0.552654 -0.125053 -2.07709
H -0.444557 1.59256 -3.29111
H 0.956231 0.674746 -3.30975
H 0.601141 1.63446 -1.98356
H -0.985461 -0.709726 -2.89465
H -1.36252 0.31143 -1.4845
C 0.304322 -1.04088 -1.18477
H 1.11465 -1.49482 -1.76044
H -0.309219 -1.84325 -0.767612
H 0.739235 -0.477402 -0.355642
Cl -2.39681e-05 -0.000108481 2.66051
