12
Coordinates from XML
N 1.101 -0.106367 -1.26292
C -0.359116 -0.334487 -1.54931
H 1.4015 -0.65267 -0.438129
H 1.28457 0.892983 -1.07234
H 1.68106 -0.393656 -2.06898
H -0.907745 -0.0417079 -0.648831
H -0.485322 -1.40976 -1.70876
C -0.910172 0.4356 -2.76284
H -0.802014 1.51349 -2.61948
H -1.97147 0.214263 -2.90037
H -0.380973 0.150719 -3.67548
Cl -0.000118464 8.84201e-06 2.42162
