12
Coordinates from XML
N 0.51446 0.455271 -3.13775
C 0.336934 0.169527 -1.67049
H 1.36202 1.02497 -3.29934
H -0.298629 0.973657 -3.51041
H 0.61003 -0.42418 -3.6727
H 0.275472 1.13798 -1.16464
H 1.24171 -0.348543 -1.33802
C -0.900596 -0.6758 -1.31934
H -1.81694 -0.17112 -1.63512
H -0.95409 -0.836658 -0.239744
H -0.854431 -1.65207 -1.80808
Cl -5.17932e-05 -4.67369e-05 2.76288
