12
Coordinates from XML
N 1.276887108555 -0.38888592516 -0.762893927665
C 0.876887108555 -0.05688592516 -2.129893927665
H 2.066887108555 0.14711407484 -0.395893927665
H 1.405887108555 -1.38088592516 -0.549893927665
H 0.517887108555 -0.10688592516 -0.071893927665
H 1.729887108555 -0.27988592516 -2.776893927665
H 0.669887108555 1.01611407484 -2.159893927665
C -0.336112891445 -0.87188592516 -2.521893927665
H -0.130112891445 -1.94588592516 -2.457893927665
H -0.625112891445 -0.64488592516 -3.552893927665
H -1.191112891445 -0.64988592516 -1.876893927665
Cl -0.824977233703 0.585264724393 2.300755527342
