12
Coordinates from XML
N 1.28198 -0.391509 -0.771887
C 0.881977 -0.0595094 -2.13889
H 2.07198 0.144491 -0.404887
H 1.41098 -1.38351 -0.558887
H 0.522977 -0.109509 -0.080887
H 1.73498 -0.282509 -2.78589
H 0.674977 1.01349 -2.16889
C -0.331023 -0.874509 -2.53089
H -0.125023 -1.94851 -2.46689
H -0.620023 -0.647509 -3.56189
H -1.18602 -0.652509 -1.88589
Cl -0.831682 0.588721 2.3126
