12
Coordinates from XML
N 1.28452 -0.392821 -0.776384
C 0.884522 -0.0608211 -2.14338
H 2.07452 0.143179 -0.409384
H 1.41352 -1.38482 -0.563384
H 0.525522 -0.110821 -0.0853835
H 1.73752 -0.283821 -2.79038
H 0.677522 1.01218 -2.17338
C -0.328478 -0.875821 -2.53538
H -0.122478 -1.94982 -2.47138
H -0.617478 -0.648821 -3.56638
H -1.18348 -0.653821 -1.89038
Cl -0.835035 0.590449 2.31853
