12
Coordinates from XML
N 1.284521893033 -0.392821111216 -0.776383501154
C 0.884521893033 -0.060821111216 -2.143383501154
H 2.074521893033 0.143178888784 -0.409383501154
H 1.413521893033 -1.384821111216 -0.563383501154
H 0.525521893033 -0.110821111216 -0.085383501154
H 1.737521893033 -0.283821111216 -2.790383501154
H 0.677521893033 1.012178888784 -2.173383501154
C -0.328478106967 -0.875821111216 -2.535383501154
H -0.122478106967 -1.949821111216 -2.471383501154
H -0.617478106967 -0.648821111216 -3.566383501154
H -1.183478106967 -0.653821111216 -1.890383501154
Cl -0.835034798303 0.590448680546 2.318525807194
