12
Coordinates from XML
N 1.287066821192 -0.394132839902 -0.78088002565
C 0.887066821192 -0.062132839902 -2.14788002565
H 2.077066821192 0.141867160098 -0.41388002565
H 1.416066821192 -1.386132839902 -0.56788002565
H 0.528066821192 -0.112132839902 -0.08988002565
H 1.740066821192 -0.285132839902 -2.79488002565
H 0.680066821192 1.010867160098 -2.17788002565
C -0.325933178808 -0.877132839902 -2.53988002565
H -0.119933178808 -1.951132839902 -2.47588002565
H -0.614933178808 -0.650132839902 -3.57088002565
H -1.180933178808 -0.655132839902 -1.89488002565
Cl -0.838387319836 0.592176665931 2.324449233811
