12
Coordinates from XML
N 1.28707 -0.394133 -0.78088
C 0.887067 -0.0621328 -2.14788
H 2.07707 0.141867 -0.41388
H 1.41607 -1.38613 -0.56788
H 0.528067 -0.112133 -0.08988
H 1.74007 -0.285133 -2.79488
H 0.680067 1.01087 -2.17788
C -0.325933 -0.877133 -2.53988
H -0.119933 -1.95113 -2.47588
H -0.614933 -0.650133 -3.57088
H -1.18093 -0.655133 -1.89488
Cl -0.838387 0.592177 2.32445
