12
Coordinates from XML
N 1.28961 -0.395445 -0.785377
C 0.889612 -0.0634446 -2.15238
H 2.07961 0.140555 -0.418377
H 1.41861 -1.38744 -0.572377
H 0.530612 -0.113445 -0.0943766
H 1.74261 -0.286445 -2.79938
H 0.682612 1.00956 -2.18238
C -0.323388 -0.878445 -2.54438
H -0.117388 -1.95244 -2.48038
H -0.612388 -0.651445 -3.57538
H -1.17839 -0.656445 -1.89938
Cl -0.84174 0.593905 2.33037
