12
Coordinates from XML
N 1.30488 -0.403315 -0.812356
C 0.904881 -0.0713149 -2.17936
H 2.09488 0.132685 -0.445356
H 1.43388 -1.39531 -0.599356
H 0.545881 -0.121315 -0.121356
H 1.75788 -0.294315 -2.82636
H 0.697881 1.00169 -2.20936
C -0.308119 -0.886315 -2.57136
H -0.102119 -1.96031 -2.50736
H -0.597119 -0.659315 -3.60236
H -1.16312 -0.664315 -1.92636
Cl -0.861855 0.604273 2.36591
