12
Coordinates from XML
N 1.30743 -0.404627 -0.816852
C 0.907426 -0.0726267 -2.18385
H 2.09743 0.131373 -0.449852
H 1.43643 -1.39663 -0.603852
H 0.548426 -0.122627 -0.125852
H 1.76043 -0.295627 -2.83085
H 0.700426 1.00037 -2.21385
C -0.305574 -0.887627 -2.57585
H -0.0995738 -1.96163 -2.51185
H -0.594574 -0.660627 -3.60685
H -1.16057 -0.665627 -1.93085
Cl -0.865207 0.606001 2.37184
