12
Coordinates from XML
N 1.309971174625 -0.405938398071 -0.821348746116
C 0.909971174625 -0.073938398071 -2.188348746116
H 2.099971174625 0.130061601929 -0.454348746116
H 1.438971174625 -1.397938398071 -0.608348746116
H 0.550971174625 -0.123938398071 -0.130348746116
H 1.762971174625 -0.296938398071 -2.835348746116
H 0.702971174625 0.999061601929 -2.218348746116
C -0.303028825375 -0.888938398071 -2.580348746116
H -0.097028825375 -1.962938398071 -2.516348746116
H -0.592028825375 -0.661938398071 -3.611348746116
H -1.158028825375 -0.666938398071 -1.935348746116
Cl -0.868560013634 0.607728534391 2.377760073367
