12
Coordinates from XML
N 1.312516102784 -0.407250126757 -0.825845270612
C 0.912516102784 -0.075250126757 -2.192845270612
H 2.102516102784 0.128749873243 -0.458845270612
H 1.441516102784 -1.399250126757 -0.612845270612
H 0.553516102784 -0.125250126757 -0.134845270612
H 1.765516102784 -0.298250126757 -2.839845270612
H 0.705516102784 0.997749873243 -2.222845270612
C -0.300483897216 -0.890250126757 -2.584845270612
H -0.094483897216 -1.964250126757 -2.520845270612
H -0.589483897216 -0.663250126757 -3.615845270612
H -1.155483897216 -0.668250126757 -1.939845270612
Cl -0.871912535167 0.609456519775 2.383683499985
