12
Coordinates from XML
N 1.315061030943 -0.408561855442 -0.830341795108
C 0.915061030943 -0.076561855442 -2.197341795108
H 2.105061030943 0.127438144558 -0.463341795108
H 1.444061030943 -1.400561855442 -0.617341795108
H 0.556061030943 -0.126561855442 -0.139341795108
H 1.768061030943 -0.299561855442 -2.844341795108
H 0.708061030943 0.996438144558 -2.227341795108
C -0.297938969057 -0.891561855442 -2.589341795108
H -0.091938969057 -1.965561855442 -2.525341795108
H -0.586938969057 -0.664561855442 -3.620341795108
H -1.152938969057 -0.669561855442 -1.944341795108
Cl -0.8752650567 0.61118450516 2.389606926602
