12
Coordinates from XML
N 1.317605959103 -0.409873584128 -0.834838319604
C 0.917605959103 -0.077873584128 -2.201838319604
H 2.107605959103 0.126126415872 -0.467838319604
H 1.446605959103 -1.401873584128 -0.621838319604
H 0.558605959103 -0.127873584128 -0.143838319604
H 1.770605959103 -0.300873584128 -2.848838319604
H 0.710605959103 0.995126415872 -2.231838319604
C -0.295394040897 -0.892873584128 -2.593838319604
H -0.089394040897 -1.966873584128 -2.529838319604
H -0.584394040897 -0.665873584128 -3.624838319604
H -1.150394040897 -0.670873584128 -1.948838319604
Cl -0.878617578233 0.612912490544 2.395530353219
