12
Coordinates from XML
N 1.32015 -0.411185 -0.839335
C 0.920151 -0.0791853 -2.20633
H 2.11015 0.124815 -0.472335
H 1.44915 -1.40319 -0.626335
H 0.561151 -0.129185 -0.148335
H 1.77315 -0.302185 -2.85333
H 0.713151 0.993815 -2.23633
C -0.292849 -0.894185 -2.59833
H -0.0868491 -1.96819 -2.53433
H -0.581849 -0.667185 -3.62933
H -1.14785 -0.672185 -1.95333
Cl -0.88197 0.61464 2.40145
