12
Coordinates from XML
N 1.3227 -0.412497 -0.843831
C 0.922696 -0.080497 -2.21083
H 2.1127 0.123503 -0.476831
H 1.4517 -1.4045 -0.630831
H 0.563696 -0.130497 -0.152831
H 1.7757 -0.303497 -2.85783
H 0.715696 0.992503 -2.24083
C -0.290304 -0.895497 -2.60283
H -0.0843042 -1.9695 -2.53883
H -0.579304 -0.668497 -3.63383
H -1.1453 -0.673497 -1.95783
Cl -0.885323 0.616368 2.40738
