12
Coordinates from XML
N 1.32524074358 -0.413808770184 -0.848327893093
C 0.92524074358 -0.081808770184 -2.215327893093
H 2.11524074358 0.122191229816 -0.481327893093
H 1.45424074358 -1.405808770184 -0.635327893093
H 0.56624074358 -0.131808770184 -0.157327893093
H 1.77824074358 -0.304808770184 -2.862327893093
H 0.71824074358 0.991191229816 -2.245327893093
C -0.28775925642 -0.896808770184 -2.607327893093
H -0.08175925642 -1.970808770184 -2.543327893093
H -0.57675925642 -0.669808770184 -3.638327893093
H -1.14275925642 -0.674808770184 -1.962327893093
Cl -0.888675142832 0.618096446698 2.413300633071
