12
Coordinates from XML
N 1.32524 -0.413809 -0.848328
C 0.925241 -0.0818088 -2.21533
H 2.11524 0.122191 -0.481328
H 1.45424 -1.40581 -0.635328
H 0.566241 -0.131809 -0.157328
H 1.77824 -0.304809 -2.86233
H 0.718241 0.991191 -2.24533
C -0.287759 -0.896809 -2.60733
H -0.0817593 -1.97081 -2.54333
H -0.576759 -0.669809 -3.63833
H -1.14276 -0.674809 -1.96233
Cl -0.888675 0.618096 2.4133
