12
Coordinates from XML
N 1.33033 -0.416432 -0.857321
C 0.930331 -0.0844322 -2.22432
H 2.12033 0.119568 -0.490321
H 1.45933 -1.40843 -0.644321
H 0.571331 -0.134432 -0.166321
H 1.78333 -0.307432 -2.87132
H 0.723331 0.988568 -2.25432
C -0.282669 -0.899432 -2.61632
H -0.0766694 -1.97343 -2.55232
H -0.571669 -0.672432 -3.64732
H -1.13767 -0.677432 -1.97132
Cl -0.89538 0.621552 2.42515
