12
Coordinates from XML
N 1.33542 -0.419056 -0.866314
C 0.93542 -0.0870557 -2.23331
H 2.12542 0.116944 -0.499314
H 1.46442 -1.41106 -0.653314
H 0.57642 -0.137056 -0.175314
H 1.78842 -0.310056 -2.88031
H 0.72842 0.985944 -2.26331
C -0.27758 -0.902056 -2.62531
H -0.0715795 -1.97606 -2.56131
H -0.56658 -0.675056 -3.65631
H -1.13258 -0.680056 -1.98031
Cl -0.902085 0.625008 2.43699
