12
Coordinates from XML
N 1.337965384376 -0.420367413612 -0.870810515574
C 0.937965384376 -0.088367413612 -2.237810515574
H 2.127965384376 0.115632586388 -0.503810515574
H 1.466965384376 -1.412367413612 -0.657810515574
H 0.578965384376 -0.138367413612 -0.179810515574
H 1.790965384376 -0.311367413612 -2.884810515574
H 0.730965384376 0.984632586388 -2.267810515574
C -0.275034615624 -0.903367413612 -2.629810515574
H -0.069034615624 -1.977367413612 -2.565810515574
H -0.564034615624 -0.676367413612 -3.660810515574
H -1.130034615624 -0.681367413612 -1.984810515574
Cl -0.905437750498 0.62673637362 2.442917766158
