12
Coordinates from XML
N 1.33797 -0.420367 -0.870811
C 0.937965 -0.0883674 -2.23781
H 2.12797 0.115633 -0.503811
H 1.46697 -1.41237 -0.657811
H 0.578965 -0.138367 -0.179811
H 1.79097 -0.311367 -2.88481
H 0.730965 0.984633 -2.26781
C -0.275035 -0.903367 -2.62981
H -0.0690346 -1.97737 -2.56581
H -0.564035 -0.676367 -3.66081
H -1.13003 -0.681367 -1.98481
Cl -0.905438 0.626736 2.44292
