12
Coordinates from XML
N 1.3456 -0.424303 -0.8843
C 0.9456 -0.0923026 -2.2513
H 2.1356 0.111697 -0.5173
H 1.4746 -1.4163 -0.6713
H 0.5866 -0.142303 -0.1933
H 1.7986 -0.315303 -2.8983
H 0.7386 0.980697 -2.2813
C -0.2674 -0.907303 -2.6433
H -0.0613998 -1.9813 -2.5793
H -0.5564 -0.680303 -3.6743
H -1.1224 -0.685303 -1.9983
Cl -0.915495 0.63192 2.46069
