12
Coordinates from XML
N 1.35069 -0.426926 -0.893293
C 0.95069 -0.0949261 -2.26029
H 2.14069 0.109074 -0.526293
H 1.47969 -1.41893 -0.680293
H 0.59169 -0.144926 -0.202293
H 1.80369 -0.317926 -2.90729
H 0.74369 0.978074 -2.29029
C -0.26231 -0.909926 -2.65229
H -0.05631 -1.98393 -2.58829
H -0.55131 -0.682926 -3.68329
H -1.11731 -0.687926 -2.00729
Cl -0.9222 0.635376 2.47253
