12
Coordinates from XML
N 1.350690025173 -0.426926057039 -0.893293138055
C 0.950690025173 -0.094926057039 -2.260293138055
H 2.140690025173 0.109073942961 -0.526293138055
H 1.479690025173 -1.418926057039 -0.680293138055
H 0.591690025173 -0.144926057039 -0.202293138055
H 1.803690025173 -0.317926057039 -2.907293138055
H 0.743690025173 0.978073942961 -2.290293138055
C -0.262309974827 -0.909926057039 -2.652293138055
H -0.056309974827 -1.983926057039 -2.588293138055
H -0.551309974827 -0.682926057039 -3.683293138055
H -1.117309974827 -0.687926057039 -2.007293138055
Cl -0.922200358163 0.635376300543 2.472534899245
