12
Coordinates from XML
N 1.35578 -0.42955 -0.902286
C 0.95578 -0.0975495 -2.26929
H 2.14578 0.10645 -0.535286
H 1.48478 -1.42155 -0.689286
H 0.59678 -0.14755 -0.211286
H 1.80878 -0.32055 -2.91629
H 0.74878 0.97545 -2.29929
C -0.25722 -0.91255 -2.66129
H -0.0512201 -1.98655 -2.59729
H -0.54622 -0.68555 -3.69229
H -1.11222 -0.69055 -2.01629
Cl -0.928905 0.638832 2.48438
