12
Coordinates from XML
N 1.35832480965 -0.430861243096 -0.906782711544
C 0.95832480965 -0.098861243096 -2.273782711544
H 2.14832480965 0.105138756904 -0.539782711544
H 1.48732480965 -1.422861243096 -0.693782711544
H 0.59932480965 -0.148861243096 -0.215782711544
H 1.81132480965 -0.321861243096 -2.920782711544
H 0.75132480965 0.974138756904 -2.303782711544
C -0.25467519035 -0.913861243096 -2.665782711544
H -0.04867519035 -1.987861243096 -2.601782711544
H -0.54367519035 -0.686861243096 -3.696782711544
H -1.10967519035 -0.691861243096 -2.020782711544
Cl -0.932257922763 0.640560256696 2.490305179097
