12
Coordinates from XML
N 1.36087 -0.432173 -0.911279
C 0.96087 -0.100173 -2.27828
H 2.15087 0.103827 -0.544279
H 1.48987 -1.42417 -0.698279
H 0.60187 -0.150173 -0.220279
H 1.81387 -0.323173 -2.92528
H 0.75387 0.972827 -2.30828
C -0.25213 -0.915173 -2.67028
H -0.0461303 -1.98917 -2.60628
H -0.54113 -0.688173 -3.70128
H -1.10713 -0.693173 -2.02528
Cl -0.93561 0.642288 2.49623
