12
Coordinates from XML
N 1.260405669047 -0.38039092034 -0.733773578547
C 0.860405669047 -0.04839092034 -2.100773578547
H 2.050405669047 0.15560907966 -0.366773578547
H 1.389405669047 -1.37239092034 -0.520773578547
H 0.501405669047 -0.09839092034 -0.042773578547
H 1.713405669047 -0.27139092034 -2.747773578547
H 0.653405669047 1.02460907966 -2.130773578547
C -0.352594330953 -0.86339092034 -2.492773578547
H -0.146594330953 -1.93739092034 -2.428773578547
H -0.641594330953 -0.63639092034 -3.523773578547
H -1.207594330953 -0.64139092034 -1.847773578547
Cl -0.80326566568 0.574073961903 2.262394288296
