12
Coordinates from XML
N 1.26041 -0.380391 -0.733774
C 0.860406 -0.0483909 -2.10077
H 2.05041 0.155609 -0.366774
H 1.38941 -1.37239 -0.520774
H 0.501406 -0.0983909 -0.0427736
H 1.71341 -0.271391 -2.74777
H 0.653406 1.02461 -2.13077
C -0.352594 -0.863391 -2.49277
H -0.146594 -1.93739 -2.42877
H -0.641594 -0.636391 -3.52377
H -1.20759 -0.641391 -1.84777
Cl -0.803266 0.574074 2.26239
