12
Coordinates from XML
N 1.26275 -0.381598 -0.73791
C 0.862747 -0.0495976 -2.10491
H 2.05275 0.154402 -0.37091
H 1.39175 -1.3736 -0.52491
H 0.503747 -0.0995976 -0.04691
H 1.71575 -0.272598 -2.75191
H 0.655747 1.0234 -2.13491
C -0.350253 -0.864598 -2.49691
H -0.144253 -1.9386 -2.43291
H -0.639253 -0.637598 -3.52791
H -1.20525 -0.642598 -1.85191
Cl -0.80635 0.575664 2.26784
