12
Coordinates from XML
N 1.26508789618 -0.382804273982 -0.742046405001
C 0.86508789618 -0.050804273982 -2.109046405001
H 2.05508789618 0.153195726018 -0.375046405001
H 1.39408789618 -1.374804273982 -0.529046405001
H 0.50608789618 -0.100804273982 -0.051046405001
H 1.71808789618 -0.273804273982 -2.756046405001
H 0.65808789618 1.022195726018 -2.139046405001
C -0.34791210382 -0.865804273982 -2.501046405001
H -0.14191210382 -1.939804273982 -2.437046405001
H -0.63691210382 -0.638804273982 -3.532046405001
H -1.20291210382 -0.643804273982 -1.856046405001
Cl -0.809433724777 0.577253155792 2.273292367571
