12
Coordinates from XML
N 1.267429009747 -0.384010950803 -0.746182818228
C 0.867429009747 -0.052010950803 -2.113182818228
H 2.057429009747 0.151989049197 -0.379182818228
H 1.396429009747 -1.376010950803 -0.533182818228
H 0.508429009747 -0.102010950803 -0.055182818228
H 1.720429009747 -0.275010950803 -2.760182818228
H 0.660429009747 1.020989049197 -2.143182818228
C -0.345570990253 -0.867010950803 -2.505182818228
H -0.139570990253 -1.941010950803 -2.441182818228
H -0.634570990253 -0.640010950803 -3.536182818228
H -1.200570990253 -0.645010950803 -1.860182818228
Cl -0.812517754326 0.578842752736 2.278741407208
