12
Coordinates from XML
N 1.269770123313 -0.385217627624 -0.750319231455
C 0.869770123313 -0.053217627624 -2.117319231455
H 2.059770123313 0.150782372376 -0.383319231455
H 1.398770123313 -1.377217627624 -0.537319231455
H 0.510770123313 -0.103217627624 -0.059319231455
H 1.722770123313 -0.276217627624 -2.764319231455
H 0.662770123313 1.019782372376 -2.147319231455
C -0.343229876687 -0.868217627624 -2.509319231455
H -0.137229876687 -1.942217627624 -2.445319231455
H -0.632229876687 -0.641217627624 -3.540319231455
H -1.198229876687 -0.646217627624 -1.864319231455
Cl -0.815601783875 0.580432349681 2.284190446845
