12
Coordinates from XML
N 1.27679 -0.388838 -0.762728
C 0.876793 -0.0568377 -2.12973
H 2.06679 0.147162 -0.395728
H 1.40579 -1.38084 -0.549728
H 0.517793 -0.106838 -0.0717285
H 1.72979 -0.279838 -2.77673
H 0.669793 1.01616 -2.15973
C -0.336207 -0.871838 -2.52173
H -0.130207 -1.94584 -2.45773
H -0.625207 -0.644838 -3.55273
H -1.19121 -0.649838 -1.87673
Cl -0.824854 0.585201 2.30054
