12
Coordinates from XML
N 1.281475691145 -0.391251011729 -0.77100129759
C 0.881475691145 -0.059251011729 -2.13800129759
H 2.071475691145 0.144748988271 -0.40400129759
H 1.410475691145 -1.383251011729 -0.55800129759
H 0.522475691145 -0.109251011729 -0.08000129759
H 1.734475691145 -0.282251011729 -2.78500129759
H 0.674475691145 1.013748988271 -2.16800129759
C -0.331524308855 -0.874251011729 -2.53000129759
H -0.125524308855 -1.948251011729 -2.46600129759
H -0.620524308855 -0.647251011729 -3.56100129759
H -1.186524308855 -0.652251011729 -1.88500129759
Cl -0.831021931619 0.588380334404 2.311435645031
