12
Coordinates from XML
N 1.28148 -0.391251 -0.771001
C 0.881476 -0.059251 -2.138
H 2.07148 0.144749 -0.404001
H 1.41048 -1.38325 -0.558001
H 0.522476 -0.109251 -0.0800013
H 1.73448 -0.282251 -2.785
H 0.674476 1.01375 -2.168
C -0.331524 -0.874251 -2.53
H -0.125524 -1.94825 -2.466
H -0.620524 -0.647251 -3.561
H -1.18652 -0.652251 -1.885
Cl -0.831022 0.58838 2.31144
