12
Coordinates from XML
N 1.283816804711 -0.39245768855 -0.775137710817
C 0.883816804711 -0.06045768855 -2.142137710817
H 2.073816804711 0.14354231145 -0.408137710817
H 1.412816804711 -1.38445768855 -0.562137710817
H 0.524816804711 -0.11045768855 -0.084137710817
H 1.736816804711 -0.28345768855 -2.789137710817
H 0.676816804711 1.01254231145 -2.172137710817
C -0.329183195289 -0.87545768855 -2.534137710817
H -0.123183195289 -1.94945768855 -2.470137710817
H -0.618183195289 -0.64845768855 -3.565137710817
H -1.184183195289 -0.65345768855 -1.889137710817
Cl -0.834105961168 0.589969931349 2.316884684668
