12
Coordinates from XML
N 1.33064 -0.416591 -0.857866
C 0.930639 -0.0845912 -2.22487
H 2.12064 0.119409 -0.490866
H 1.45964 -1.40859 -0.644866
H 0.571639 -0.134591 -0.166866
H 1.78364 -0.307591 -2.87187
H 0.723639 0.988409 -2.25487
C -0.282361 -0.899591 -2.61687
H -0.0763609 -1.97359 -2.55287
H -0.571361 -0.672591 -3.64787
H -1.13736 -0.677591 -1.97187
Cl -0.895787 0.621762 2.42587
