12
Coordinates from XML
N 1.332980189606 -0.417797901793 -0.862002388585
C 0.932980189606 -0.085797901793 -2.229002388585
H 2.122980189606 0.118202098207 -0.495002388585
H 1.461980189606 -1.409797901793 -0.649002388585
H 0.573980189606 -0.135797901793 -0.171002388585
H 1.785980189606 -0.308797901793 -2.876002388585
H 0.725980189606 0.987202098207 -2.259002388585
C -0.280019810394 -0.900797901793 -2.621002388585
H -0.074019810394 -1.974797901793 -2.557002388585
H -0.569019810394 -0.673797901793 -3.652002388585
H -1.135019810394 -0.678797901793 -1.976002388585
Cl -0.898870581694 0.623351467185 2.431314517048
