12
Coordinates from XML
N 0.101333693288 -1.128191706861 -0.856202815732
C -0.573054064907 0.19701431119 -1.280622737226
H -0.533767159668 -1.704961916343 -0.299631851471
H 0.93810268316 -0.940930274363 -0.298385757886
H 0.385019472576 -1.664776354991 -1.679616080507
H -0.872964604075 0.686747088655 -0.3568391149
H -1.464641724654 -0.087721326137 -1.834880493553
C 0.380565670946 1.044666516982 -2.106514864801
H 1.274026647752 1.324719101572 -1.546344341019
H -0.124253974236 1.968273642091 -2.388734059425
H 0.680472977387 0.546958087214 -3.030000725853
Cl 0.017349056143 0.021981560819 1.834747923421
