12
Coordinates from XML
N 0.101333693288 -1.128191706861 -0.890725238704
C -0.573054064907 0.19701431119 -1.315145160199
H -0.533767159668 -1.704961916343 -0.334154274444
H 0.93810268316 -0.940930274363 -0.332908180858
H 0.385019472576 -1.664776354991 -1.71413850348
H -0.872964604075 0.686747088655 -0.391361537872
H -1.464641724654 -0.087721326137 -1.869402916526
C 0.380565670946 1.044666516982 -2.141037287774
H 1.274026647752 1.324719101572 -1.580866763992
H -0.124253974236 1.968273642091 -2.423256482398
H 0.680472977387 0.546958087214 -3.064523148826
Cl 0.017349056143 0.021981560819 1.880225500448
