12
Coordinates from XML
N 0.101333693288 -1.128191706861 -0.93387826742
C -0.573054064907 0.19701431119 -1.358298188915
H -0.533767159668 -1.704961916343 -0.37730730316
H 0.93810268316 -0.940930274363 -0.376061209574
H 0.385019472576 -1.664776354991 -1.757291532195
H -0.872964604075 0.686747088655 -0.434514566588
H -1.464641724654 -0.087721326137 -1.912555945242
C 0.380565670946 1.044666516982 -2.18419031649
H 1.274026647752 1.324719101572 -1.624019792708
H -0.124253974236 1.968273642091 -2.466409511114
H 0.680472977387 0.546958087214 -3.107676177542
Cl 0.017349056143 0.021981560819 1.937072471732
