12
Coordinates from XML
N 0.101334 -1.12819 -0.968401
C -0.573054 0.197014 -1.39282
H -0.533767 -1.70496 -0.41183
H 0.938103 -0.94093 -0.410584
H 0.385019 -1.66478 -1.79181
H -0.872965 0.686747 -0.469037
H -1.46464 -0.0877213 -1.94708
C 0.380566 1.04467 -2.21871
H 1.27403 1.32472 -1.65854
H -0.124254 1.96827 -2.50093
H 0.680473 0.546958 -3.1422
Cl 0.0173491 0.0219816 1.98255
