12
Coordinates from XML
N 0.101334 -1.12819 -1.12375
C -0.573054 0.197014 -1.54817
H -0.533767 -1.70496 -0.567181
H 0.938103 -0.94093 -0.565935
H 0.385019 -1.66478 -1.94716
H -0.872965 0.686747 -0.624388
H -1.46464 -0.0877213 -2.10243
C 0.380566 1.04467 -2.37406
H 1.27403 1.32472 -1.81389
H -0.124254 1.96827 -2.65628
H 0.680473 0.546958 -3.29755
Cl 0.0173491 0.0219816 2.1872
