12
Coordinates from XML
N 0.101333693288 -1.128191706861 -1.12375159377
C -0.573054064907 0.19701431119 -1.548171515265
H -0.533767159668 -1.704961916343 -0.56718062951
H 0.93810268316 -0.940930274363 -0.565934535924
H 0.385019472576 -1.664776354991 -1.947164858545
H -0.872964604075 0.686747088655 -0.624387892938
H -1.464641724654 -0.087721326137 -2.102429271591
C 0.380565670946 1.044666516982 -2.37406364284
H 1.274026647752 1.324719101572 -1.813893119057
H -0.124253974236 1.968273642091 -2.656282837464
H 0.680472977387 0.546958087214 -3.297549503892
Cl 0.017349056143 0.021981560819 2.187199145382
