12
Coordinates from XML
N 0.101333693288 -1.128191706861 -1.201427045458
C -0.573054064907 0.19701431119 -1.625846966953
H -0.533767159668 -1.704961916343 -0.644856081198
H 0.93810268316 -0.940930274363 -0.643609987612
H 0.385019472576 -1.664776354991 -2.024840310234
H -0.872964604075 0.686747088655 -0.702063344626
H -1.464641724654 -0.087721326137 -2.18010472328
C 0.380565670946 1.044666516982 -2.451739094528
H 1.274026647752 1.324719101572 -1.891568570746
H -0.124253974236 1.968273642091 -2.733958289152
H 0.680472977387 0.546958087214 -3.37522495558
Cl 0.017349056143 0.021981560819 2.289523693694
