12
Coordinates from XML
N 0.101333693288 -1.128191706861 -1.235949468431
C -0.573054064907 0.19701431119 -1.660369389926
H -0.533767159668 -1.704961916343 -0.679378504171
H 0.93810268316 -0.940930274363 -0.678132410585
H 0.385019472576 -1.664776354991 -2.059362733206
H -0.872964604075 0.686747088655 -0.736585767599
H -1.464641724654 -0.087721326137 -2.214627146253
C 0.380565670946 1.044666516982 -2.486261517501
H 1.274026647752 1.324719101572 -1.926090993718
H -0.124253974236 1.968273642091 -2.768480712125
H 0.680472977387 0.546958087214 -3.409747378553
Cl 0.017349056143 0.021981560819 2.335001270721
