12
Coordinates from XML
N 0.101333693288 -1.128191706861 -1.270471891404
C -0.573054064907 0.19701431119 -1.694891812898
H -0.533767159668 -1.704961916343 -0.713900927143
H 0.93810268316 -0.940930274363 -0.712654833558
H 0.385019472576 -1.664776354991 -2.093885156179
H -0.872964604075 0.686747088655 -0.771108190572
H -1.464641724654 -0.087721326137 -2.249149569225
C 0.380565670946 1.044666516982 -2.520783940473
H 1.274026647752 1.324719101572 -1.960613416691
H -0.124253974236 1.968273642091 -2.803003135097
H 0.680472977387 0.546958087214 -3.444269801525
Cl 0.017349056143 0.021981560819 2.380478847749
