12
Coordinates from XML
N 0.101333693288 -1.128191706861 -1.348147343092
C -0.573054064907 0.19701431119 -1.772567264587
H -0.533767159668 -1.704961916343 -0.791576378832
H 0.93810268316 -0.940930274363 -0.790330285246
H 0.385019472576 -1.664776354991 -2.171560607867
H -0.872964604075 0.686747088655 -0.84878364226
H -1.464641724654 -0.087721326137 -2.326825020914
C 0.380565670946 1.044666516982 -2.598459392162
H 1.274026647752 1.324719101572 -2.03828886838
H -0.124253974236 1.968273642091 -2.880678586786
H 0.680472977387 0.546958087214 -3.521945253214
Cl 0.017349056143 0.021981560819 2.48280339606
