12
Coordinates from XML
N 0.101334 -1.12819 -1.38267
C -0.573054 0.197014 -1.80709
H -0.533767 -1.70496 -0.826099
H 0.938103 -0.94093 -0.824853
H 0.385019 -1.66478 -2.20608
H -0.872965 0.686747 -0.883306
H -1.46464 -0.0877213 -2.36135
C 0.380566 1.04467 -2.63298
H 1.27403 1.32472 -2.07281
H -0.124254 1.96827 -2.9152
H 0.680473 0.546958 -3.55647
Cl 0.0173491 0.0219816 2.52828
