12
Coordinates from XML
N 0.101333693288 -1.128191706861 -1.382669766065
C -0.573054064907 0.19701431119 -1.80708968756
H -0.533767159668 -1.704961916343 -0.826098801805
H 0.93810268316 -0.940930274363 -0.824852708219
H 0.385019472576 -1.664776354991 -2.20608303084
H -0.872964604075 0.686747088655 -0.883306065233
H -1.464641724654 -0.087721326137 -2.361347443886
C 0.380565670946 1.044666516982 -2.632981815135
H 1.274026647752 1.324719101572 -2.072811291352
H -0.124253974236 1.968273642091 -2.915201009759
H 0.680472977387 0.546958087214 -3.556467676187
Cl 0.017349056143 0.021981560819 2.528280973087
