12
Coordinates from XML
N 0.101334 -1.12819 -1.41719
C -0.573054 0.197014 -1.84161
H -0.533767 -1.70496 -0.860621
H 0.938103 -0.94093 -0.859375
H 0.385019 -1.66478 -2.24061
H -0.872965 0.686747 -0.917828
H -1.46464 -0.0877213 -2.39587
C 0.380566 1.04467 -2.6675
H 1.27403 1.32472 -2.10733
H -0.124254 1.96827 -2.94972
H 0.680473 0.546958 -3.59099
Cl 0.0173491 0.0219816 2.57376
