12
Coordinates from XML
N 0.101333693288 -1.128191706861 -1.417192189038
C -0.573054064907 0.19701431119 -1.841612110532
H -0.533767159668 -1.704961916343 -0.860621224777
H 0.93810268316 -0.940930274363 -0.859375131191
H 0.385019472576 -1.664776354991 -2.240605453813
H -0.872964604075 0.686747088655 -0.917828488205
H -1.464641724654 -0.087721326137 -2.395869866859
C 0.380565670946 1.044666516982 -2.667504238107
H 1.274026647752 1.324719101572 -2.107333714325
H -0.124253974236 1.968273642091 -2.949723432731
H 0.680472977387 0.546958087214 -3.590990099159
Cl 0.017349056143 0.021981560819 2.573758550115
