12
Coordinates from XML
N 0.101333693288 -1.128191706861 -1.529390063699
C -0.573054064907 0.19701431119 -1.953809985193
H -0.533767159668 -1.704961916343 -0.972819099438
H 0.93810268316 -0.940930274363 -0.971573005853
H 0.385019472576 -1.664776354991 -2.352803328474
H -0.872964604075 0.686747088655 -1.030026362867
H -1.464641724654 -0.087721326137 -2.50806774152
C 0.380565670946 1.044666516982 -2.779702112768
H 1.274026647752 1.324719101572 -2.219531588986
H -0.124253974236 1.968273642091 -3.061921307392
H 0.680472977387 0.546958087214 -3.70318797382
Cl 0.017349056143 0.021981560819 2.721560675454
