12
Coordinates from XML
N 0.101334 -1.12819 -1.52939
C -0.573054 0.197014 -1.95381
H -0.533767 -1.70496 -0.972819
H 0.938103 -0.94093 -0.971573
H 0.385019 -1.66478 -2.3528
H -0.872965 0.686747 -1.03003
H -1.46464 -0.0877213 -2.50807
C 0.380566 1.04467 -2.7797
H 1.27403 1.32472 -2.21953
H -0.124254 1.96827 -3.06192
H 0.680473 0.546958 -3.70319
Cl 0.0173491 0.0219816 2.72156
