12
Coordinates from XML
N 0.101333693288 -1.128191706861 -1.563912486671
C -0.573054064907 0.19701431119 -1.988332408166
H -0.533767159668 -1.704961916343 -1.007341522411
H 0.93810268316 -0.940930274363 -1.006095428825
H 0.385019472576 -1.664776354991 -2.387325751447
H -0.872964604075 0.686747088655 -1.064548785839
H -1.464641724654 -0.087721326137 -2.542590164493
C 0.380565670946 1.044666516982 -2.814224535741
H 1.274026647752 1.324719101572 -2.254054011959
H -0.124253974236 1.968273642091 -3.096443730365
H 0.680472977387 0.546958087214 -3.737710396793
Cl 0.017349056143 0.021981560819 2.767038252481
