12
Coordinates from XML
N 0.101334 -1.12819 -1.60707
C -0.573054 0.197014 -2.03149
H -0.533767 -1.70496 -1.05049
H 0.938103 -0.94093 -1.04925
H 0.385019 -1.66478 -2.43048
H -0.872965 0.686747 -1.1077
H -1.46464 -0.0877213 -2.58574
C 0.380566 1.04467 -2.85738
H 1.27403 1.32472 -2.29721
H -0.124254 1.96827 -3.1396
H 0.680473 0.546958 -3.78086
Cl 0.0173491 0.0219816 2.82389
