12
Coordinates from XML
N 0.101333693288 -1.128191706861 -1.607065515387
C -0.573054064907 0.19701431119 -2.031485436882
H -0.533767159668 -1.704961916343 -1.050494551127
H 0.93810268316 -0.940930274363 -1.049248457541
H 0.385019472576 -1.664776354991 -2.430478780162
H -0.872964604075 0.686747088655 -1.107701814555
H -1.464641724654 -0.087721326137 -2.585743193209
C 0.380565670946 1.044666516982 -2.857377564457
H 1.274026647752 1.324719101572 -2.297207040675
H -0.124253974236 1.968273642091 -3.139596759081
H 0.680472977387 0.546958087214 -3.780863425509
Cl 0.017349056143 0.021981560819 2.823885223765
