12
Coordinates from XML
N 0.101333693288 -1.128191706861 -1.64158793836
C -0.573054064907 0.19701431119 -2.066007859855
H -0.533767159668 -1.704961916343 -1.0850169741
H 0.93810268316 -0.940930274363 -1.083770880514
H 0.385019472576 -1.664776354991 -2.465001203135
H -0.872964604075 0.686747088655 -1.142224237528
H -1.464641724654 -0.087721326137 -2.620265616181
C 0.380565670946 1.044666516982 -2.89189998743
H 1.274026647752 1.324719101572 -2.331729463647
H -0.124253974236 1.968273642091 -3.174119182054
H 0.680472977387 0.546958087214 -3.815385848482
Cl 0.017349056143 0.021981560819 2.869362800792
