12
Coordinates from XML
N 0.101334 -1.12819 -1.67611
C -0.573054 0.197014 -2.10053
H -0.533767 -1.70496 -1.11954
H 0.938103 -0.94093 -1.11829
H 0.385019 -1.66478 -2.49952
H -0.872965 0.686747 -1.17675
H -1.46464 -0.0877213 -2.65479
C 0.380566 1.04467 -2.92642
H 1.27403 1.32472 -2.36625
H -0.124254 1.96827 -3.20864
H 0.680473 0.546958 -3.84991
Cl 0.0173491 0.0219816 2.91484
