12
Coordinates from XML
N 0.101333693288 -1.128191706861 -1.710632784305
C -0.573054064907 0.19701431119 -2.1350527058
H -0.533767159668 -1.704961916343 -1.154061820045
H 0.93810268316 -0.940930274363 -1.152815726459
H 0.385019472576 -1.664776354991 -2.53404604908
H -0.872964604075 0.686747088655 -1.211269083473
H -1.464641724654 -0.087721326137 -2.689310462127
C 0.380565670946 1.044666516982 -2.960944833375
H 1.274026647752 1.324719101572 -2.400774309593
H -0.124253974236 1.968273642091 -3.243164027999
H 0.680472977387 0.546958087214 -3.884430694427
Cl 0.017349056143 0.021981560819 2.960317954847
