12
Coordinates from XML
N 0.101333693288 -1.128191706861 -1.753785813021
C -0.573054064907 0.19701431119 -2.178205734516
H -0.533767159668 -1.704961916343 -1.197214848761
H 0.93810268316 -0.940930274363 -1.195968755175
H 0.385019472576 -1.664776354991 -2.577199077796
H -0.872964604075 0.686747088655 -1.254422112189
H -1.464641724654 -0.087721326137 -2.732463490843
C 0.380565670946 1.044666516982 -3.004097862091
H 1.274026647752 1.324719101572 -2.443927338308
H -0.124253974236 1.968273642091 -3.286317056715
H 0.680472977387 0.546958087214 -3.927583723143
Cl 0.017349056143 0.021981560819 3.017164926131
