12
Coordinates from XML
N 0.101333693288 -1.128191706861 -1.857353081939
C -0.573054064907 0.19701431119 -2.281773003434
H -0.533767159668 -1.704961916343 -1.300782117679
H 0.93810268316 -0.940930274363 -1.299536024093
H 0.385019472576 -1.664776354991 -2.680766346714
H -0.872964604075 0.686747088655 -1.357989381107
H -1.464641724654 -0.087721326137 -2.836030759761
C 0.380565670946 1.044666516982 -3.107665131009
H 1.274026647752 1.324719101572 -2.547494607226
H -0.124253974236 1.968273642091 -3.389884325633
H 0.680472977387 0.546958087214 -4.031150992061
Cl 0.017349056143 0.021981560819 3.153597657213
