12
Coordinates from XML
N 0.101333693288 -1.128191706861 -1.891875504912
C -0.573054064907 0.19701431119 -2.316295426406
H -0.533767159668 -1.704961916343 -1.335304540651
H 0.93810268316 -0.940930274363 -1.334058447066
H 0.385019472576 -1.664776354991 -2.715288769687
H -0.872964604075 0.686747088655 -1.39251180408
H -1.464641724654 -0.087721326137 -2.870553182733
C 0.380565670946 1.044666516982 -3.142187553981
H 1.274026647752 1.324719101572 -2.582017030199
H -0.124253974236 1.968273642091 -3.424406748605
H 0.680472977387 0.546958087214 -4.065673415033
Cl 0.017349056143 0.021981560819 3.199075234241
