12
Coordinates from XML
N 0.101334 -1.12819 -1.89188
C -0.573054 0.197014 -2.3163
H -0.533767 -1.70496 -1.3353
H 0.938103 -0.94093 -1.33406
H 0.385019 -1.66478 -2.71529
H -0.872965 0.686747 -1.39251
H -1.46464 -0.0877213 -2.87055
C 0.380566 1.04467 -3.14219
H 1.27403 1.32472 -2.58202
H -0.124254 1.96827 -3.42441
H 0.680473 0.546958 -4.06567
Cl 0.0173491 0.0219816 3.19908
