12
Coordinates from XML
N 1.22215 -0.36067 -0.666173
C 0.822145 -0.0286704 -2.03317
H 2.01215 0.17533 -0.299173
H 1.35115 -1.35267 -0.453173
H 0.463145 -0.0786704 0.0248272
H 1.67515 -0.25167 -2.68017
H 0.615145 1.04433 -2.06317
C -0.390855 -0.84367 -2.42517
H -0.184855 -1.91767 -2.36117
H -0.679855 -0.61667 -3.45617
H -1.24585 -0.62167 -1.78017
Cl -0.752864 0.548095 2.17334
