12
Coordinates from XML
N 1.233917641268 -0.366738234021 -0.686973017464
C 0.833917641268 -0.034738234021 -2.053973017464
H 2.023917641268 0.169261765979 -0.319973017464
H 1.362917641268 -1.358738234021 -0.473973017464
H 0.474917641268 -0.084738234021 0.004026982536
H 1.686917641268 -0.257738234021 -2.700973017464
H 0.626917641268 1.038261765979 -2.083973017464
C -0.379082358732 -0.849738234021 -2.445973017464
H -0.173082358732 -1.923738234021 -2.381973017464
H -0.668082358732 -0.622738234021 -3.476973017464
H -1.234082358732 -0.627738234021 -1.800973017464
Cl -0.768372074213 0.556088807901 2.200742296973
