12
Coordinates from XML
N 1.28101 -0.39101 -0.770174
C 0.881007 -0.0590097 -2.13717
H 2.07101 0.14499 -0.403174
H 1.41001 -1.38301 -0.557174
H 0.522007 -0.10901 -0.079174
H 1.73401 -0.28201 -2.78417
H 0.674007 1.01399 -2.16717
C -0.331993 -0.87401 -2.52917
H -0.125993 -1.94801 -2.46517
H -0.620993 -0.64701 -3.56017
H -1.18699 -0.65201 -1.88417
Cl -0.830405 0.588062 2.31035
