12
Coordinates from XML
N 1.304552382014 -0.403145397537 -0.811774513685
C 0.904552382014 -0.071145397537 -2.178774513685
H 2.094552382014 0.132854602463 -0.444774513685
H 1.433552382014 -1.395145397537 -0.598774513685
H 0.545552382014 -0.121145397537 -0.120774513685
H 1.757552382014 -0.294145397537 -2.825774513685
H 0.697552382014 1.001854602463 -2.208774513685
C -0.308447617986 -0.886145397537 -2.570774513685
H -0.102447617986 -1.960145397537 -2.506774513685
H -0.597447617986 -0.659145397537 -3.601774513685
H -1.163447617986 -0.664145397537 -1.925774513685
Cl -0.861421651458 0.604049218572 2.365147607168
