12
Coordinates from XML
N 1.316324838805 -0.409213258123 -0.832574763055
C 0.916324838805 -0.077213258123 -2.199574763055
H 2.106324838805 0.126786741877 -0.465574763055
H 1.445324838805 -1.401213258123 -0.619574763055
H 0.557324838805 -0.127213258123 -0.141574763055
H 1.769324838805 -0.300213258123 -2.846574763055
H 0.709324838805 0.995786741877 -2.229574763055
C -0.296675161195 -0.892213258123 -2.591574763055
H -0.090675161195 -1.966213258123 -2.527574763055
H -0.585675161195 -0.665213258123 -3.622574763055
H -1.151675161195 -0.670213258123 -1.946574763055
Cl -0.876929914332 0.612042620351 2.392548492201
