12
Coordinates from XML
N 1.339869752387 -0.421348979295 -0.874175261796
C 0.939869752387 -0.089348979295 -2.241175261796
H 2.129869752387 0.114651020705 -0.507175261796
H 1.468869752387 -1.413348979295 -0.661175261796
H 0.580869752387 -0.139348979295 -0.183175261796
H 1.792869752387 -0.312348979295 -2.888175261796
H 0.732869752387 0.983651020705 -2.271175261796
C -0.273130247613 -0.904348979295 -2.633175261796
H -0.067130247613 -1.978348979295 -2.569175261796
H -0.562130247613 -0.677348979295 -3.664175261796
H -1.128130247613 -0.682348979295 -1.988175261796
Cl -0.90794644008 0.628029423908 2.447350262266
