12
Coordinates from XML
N 1.35164 -0.427417 -0.894976
C 0.951642 -0.0954168 -2.26198
H 2.14164 0.108583 -0.527976
H 1.48064 -1.41942 -0.681976
H 0.592642 -0.145417 -0.203976
H 1.80464 -0.318417 -2.90898
H 0.744642 0.977583 -2.29198
C -0.261358 -0.910417 -2.65398
H -0.0553578 -1.98442 -2.58998
H -0.550358 -0.683417 -3.68498
H -1.11636 -0.688417 -2.00898
Cl -0.923455 0.636023 2.47475
