12
Coordinates from XML
N -0.038027098025 -0.545850857383 -0.591735551985
C -0.206053735907 -0.426773433578 -2.124279099342
H -0.32065178631 -1.47069455366 -0.259206411524
H -0.608519073348 0.156007773654 -0.113883666284
H 0.937891284799 -0.392853830705 -0.326056553039
H -1.254603052452 -0.635025052372 -2.325118088957
H 0.400152939227 -1.222155760546 -2.552163452403
C 0.216897327319 0.951421236961 -2.605625665964
H -0.392749354034 1.745091305603 -2.170985896752
H 0.086780790499 1.001762091366 -3.68640138495
H 1.268443215661 1.155886704646 -2.398431731884
Cl 0.008141950675 0.028801420362 2.25873749972
