12
Coordinates from XML
N -0.0380271 -0.545851 -0.591736
C -0.206054 -0.426773 -2.12428
H -0.320652 -1.47069 -0.259206
H -0.608519 0.156008 -0.113884
H 0.937891 -0.392854 -0.326057
H -1.2546 -0.635025 -2.32512
H 0.400153 -1.22216 -2.55216
C 0.216897 0.951421 -2.60563
H -0.392749 1.74509 -2.17099
H 0.0867808 1.00176 -3.6864
H 1.26844 1.15589 -2.39843
Cl 0.00814195 0.0288014 2.25874
