12
Coordinates from XML
N -0.0380271 -0.545851 -0.669411
C -0.206054 -0.426773 -2.20195
H -0.320652 -1.47069 -0.336882
H -0.608519 0.156008 -0.191559
H 0.937891 -0.392854 -0.403732
H -1.2546 -0.635025 -2.40279
H 0.400153 -1.22216 -2.62984
C 0.216897 0.951421 -2.6833
H -0.392749 1.74509 -2.24866
H 0.0867808 1.00176 -3.76408
H 1.26844 1.15589 -2.47611
Cl 0.00814195 0.0288014 2.36106
