12
Coordinates from XML
N -0.0380271 -0.545851 -0.738456
C -0.206054 -0.426773 -2.271
H -0.320652 -1.47069 -0.405927
H -0.608519 0.156008 -0.260604
H 0.937891 -0.392854 -0.472777
H -1.2546 -0.635025 -2.47184
H 0.400153 -1.22216 -2.69888
C 0.216897 0.951421 -2.75235
H -0.392749 1.74509 -2.31771
H 0.0867808 1.00176 -3.83312
H 1.26844 1.15589 -2.54515
Cl 0.00814195 0.0288014 2.45202
