12
Coordinates from XML
N -0.038027098025 -0.545850857383 -0.816131301307
C -0.206053735907 -0.426773433578 -2.348674848664
H -0.32065178631 -1.47069455366 -0.483602160846
H -0.608519073348 0.156007773654 -0.338279415607
H 0.937891284799 -0.392853830705 -0.550452302362
H -1.254603052452 -0.635025052372 -2.549513838279
H 0.400152939227 -1.222155760546 -2.776559201726
C 0.216897327319 0.951421236961 -2.830021415286
H -0.392749354034 1.745091305603 -2.395381646074
H 0.086780790499 1.001762091366 -3.910797134273
H 1.268443215661 1.155886704646 -2.622827481207
Cl 0.008141950675 0.028801420362 2.554341750397
