12
Coordinates from XML
N -0.038027098025 -0.545850857383 -0.893806752996
C -0.206053735907 -0.426773433578 -2.426350300353
H -0.32065178631 -1.47069455366 -0.561277612534
H -0.608519073348 0.156007773654 -0.415954867295
H 0.937891284799 -0.392853830705 -0.62812775405
H -1.254603052452 -0.635025052372 -2.627189289968
H 0.400152939227 -1.222155760546 -2.854234653414
C 0.216897327319 0.951421236961 -2.907696866975
H -0.392749354034 1.745091305603 -2.473057097763
H 0.086780790499 1.001762091366 -3.988472585961
H 1.268443215661 1.155886704646 -2.700502932895
Cl 0.008141950675 0.028801420362 2.656666298709
