12
Coordinates from XML
N -0.0380271 -0.545851 -1.33397
C -0.206054 -0.426773 -2.86651
H -0.320652 -1.47069 -1.00144
H -0.608519 0.156008 -0.856116
H 0.937891 -0.392854 -1.06829
H -1.2546 -0.635025 -3.06735
H 0.400153 -1.22216 -3.2944
C 0.216897 0.951421 -3.34786
H -0.392749 1.74509 -2.91322
H 0.0867808 1.00176 -4.42863
H 1.26844 1.15589 -3.14066
Cl 0.00814195 0.0288014 3.23651
