12
Coordinates from XML
N -1.059073185748 0.078469135151 -2.21332719919
C -0.153844996306 0.177521179349 -0.9635861356
H -2.019631324968 0.355026272272 -1.997381795642
H -1.072762450834 -0.880240648469 -2.569834157537
H -0.708849455633 0.686549140458 -2.957633692912
H -0.610202359493 -0.465864149644 -0.214617523969
H -0.220657540136 1.210588148298 -0.629650033511
C 1.270063653058 -0.236008138235 -1.297472839064
H 1.330349687682 -1.272017975838 -1.634433064232
H 1.879985611238 -0.154759827063 -0.398064930277
H 1.72127775426 0.41073351632 -2.051538669228
Cl 0.032423217556 -0.008182122491 2.021132723531
