12
Coordinates from XML
N -1.05907 0.0784691 -2.21333
C -0.153845 0.177521 -0.963586
H -2.01963 0.355026 -1.99738
H -1.07276 -0.880241 -2.56983
H -0.708849 0.686549 -2.95763
H -0.610202 -0.465864 -0.214618
H -0.220658 1.21059 -0.62965
C 1.27006 -0.236008 -1.29747
H 1.33035 -1.27202 -1.63443
H 1.87999 -0.15476 -0.398065
H 1.72128 0.410734 -2.05154
Cl 0.0324232 -0.00818212 2.02113
