12
Coordinates from XML
N -1.05907 0.0784691 -2.34279
C -0.153845 0.177521 -1.09305
H -2.01963 0.355026 -2.12684
H -1.07276 -0.880241 -2.69929
H -0.708849 0.686549 -3.08709
H -0.610202 -0.465864 -0.344077
H -0.220658 1.21059 -0.759109
C 1.27006 -0.236008 -1.42693
H 1.33035 -1.27202 -1.76389
H 1.87999 -0.15476 -0.527524
H 1.72128 0.410734 -2.181
Cl 0.0324232 -0.00818212 2.19167
