12
Coordinates from XML
N -1.05907 0.0784691 -2.41183
C -0.153845 0.177521 -1.16209
H -2.01963 0.355026 -2.19589
H -1.07276 -0.880241 -2.76834
H -0.708849 0.686549 -3.15614
H -0.610202 -0.465864 -0.413121
H -0.220658 1.21059 -0.828154
C 1.27006 -0.236008 -1.49598
H 1.33035 -1.27202 -1.83294
H 1.87999 -0.15476 -0.596569
H 1.72128 0.410734 -2.25004
Cl 0.0324232 -0.00818212 2.28263
