12
Coordinates from XML
N -1.059073185748 0.078469135151 -2.54129021743
C -0.153844996306 0.177521179349 -1.29154915384
H -2.019631324968 0.355026272272 -2.325344813882
H -1.072762450834 -0.880240648469 -2.897797175778
H -0.708849455633 0.686549140458 -3.285596711153
H -0.610202359493 -0.465864149644 -0.542580542209
H -0.220657540136 1.210588148298 -0.957613051752
C 1.270063653058 -0.236008138235 -1.625435857304
H 1.330349687682 -1.272017975838 -1.962396082472
H 1.879985611238 -0.154759827063 -0.726027948518
H 1.72127775426 0.41073351632 -2.379501687468
Cl 0.032423217556 -0.008182122491 2.45316970529
