12
Coordinates from XML
N 1.07142 -0.652823 -1.51679
C 0.168773 0.594672 -1.3751
H 2.0594 -0.392028 -1.5577
H 0.838946 -1.16736 -2.3698
H 0.937713 -1.28305 -0.72222
H 0.394517 1.22358 -2.2334
H 0.500047 1.0997 -0.470447
C -1.29609 0.193894 -1.31559
H -1.62176 -0.314612 -2.22435
H -1.90307 1.09342 -1.21575
H -1.51573 -0.439461 -0.454712
Cl -0.0332582 -0.00400524 1.85492
