12
Coordinates from XML
N 1.071424473056 -0.652823400751 -1.516793765763
C 0.16877269254 0.594672443493 -1.375103998415
H 2.059402227562 -0.392027618559 -1.557704923403
H 0.83894604378 -1.16735861712 -2.369798072654
H 0.9377131598 -1.283049224692 -0.722220417272
H 0.394517237529 1.223581360524 -2.233400963453
H 0.500047079643 1.099704348912 -0.470446796166
C -1.29609491817 0.193894287899 -1.315585748481
H -1.621761565532 -0.314612483598 -2.22435143944
H -1.903073659043 1.093422316685 -1.215751871046
H -1.515733120554 -0.439461009232 -0.454711578388
Cl -0.033258213581 -0.00400523604 1.854920947774
