12
Coordinates from XML
N 1.071424473056 -0.652823400751 -1.594469217451
C 0.16877269254 0.594672443493 -1.452779450104
H 2.059402227562 -0.392027618559 -1.635380375092
H 0.83894604378 -1.16735861712 -2.447473524342
H 0.9377131598 -1.283049224692 -0.799895868961
H 0.394517237529 1.223581360524 -2.311076415142
H 0.500047079643 1.099704348912 -0.548122247854
C -1.29609491817 0.193894287899 -1.39326120017
H -1.621761565532 -0.314612483598 -2.302026891128
H -1.903073659043 1.093422316685 -1.293427322734
H -1.515733120554 -0.439461009232 -0.532387030077
Cl -0.033258213581 -0.00400523604 1.957245496086
