12
Coordinates from XML
N 1.071424473056 -0.652823400751 -1.67214466914
C 0.16877269254 0.594672443493 -1.530454901792
H 2.059402227562 -0.392027618559 -1.71305582678
H 0.83894604378 -1.16735861712 -2.525148976031
H 0.9377131598 -1.283049224692 -0.877571320649
H 0.394517237529 1.223581360524 -2.38875186683
H 0.500047079643 1.099704348912 -0.625797699543
C -1.29609491817 0.193894287899 -1.470936651858
H -1.621761565532 -0.314612483598 -2.379702342817
H -1.903073659043 1.093422316685 -1.371102774423
H -1.515733120554 -0.439461009232 -0.610062481765
Cl -0.033258213581 -0.00400523604 2.059570044397
