12
Coordinates from XML
N 1.071424473056 -0.652823400751 -1.758450726571
C 0.16877269254 0.594672443493 -1.616760959224
H 2.059402227562 -0.392027618559 -1.799361884212
H 0.83894604378 -1.16735861712 -2.611455033462
H 0.9377131598 -1.283049224692 -0.963877378081
H 0.394517237529 1.223581360524 -2.475057924262
H 0.500047079643 1.099704348912 -0.712103756974
C -1.29609491817 0.193894287899 -1.55724270929
H -1.621761565532 -0.314612483598 -2.466008400248
H -1.903073659043 1.093422316685 -1.457408831854
H -1.515733120554 -0.439461009232 -0.696368539197
Cl -0.033258213581 -0.00400523604 2.173263986966
