12
Coordinates from XML
N 1.07142 -0.652823 -1.83613
C 0.168773 0.594672 -1.69444
H 2.0594 -0.392028 -1.87704
H 0.838946 -1.16736 -2.68913
H 0.937713 -1.28305 -1.04155
H 0.394517 1.22358 -2.55273
H 0.500047 1.0997 -0.789779
C -1.29609 0.193894 -1.63492
H -1.62176 -0.314612 -2.54368
H -1.90307 1.09342 -1.53508
H -1.51573 -0.439461 -0.774044
Cl -0.0332582 -0.00400524 2.27559
