12
Coordinates from XML
N 1.071424473056 -0.652823400751 -2.069152533325
C 0.16877269254 0.594672443493 -1.927462765978
H 2.059402227562 -0.392027618559 -2.110063690966
H 0.83894604378 -1.16735861712 -2.922156840216
H 0.9377131598 -1.283049224692 -1.274579184835
H 0.394517237529 1.223581360524 -2.785759731016
H 0.500047079643 1.099704348912 -1.022805563728
C -1.29609491817 0.193894287899 -1.867944516044
H -1.621761565532 -0.314612483598 -2.776710207002
H -1.903073659043 1.093422316685 -1.768110638608
H -1.515733120554 -0.439461009232 -1.007070345951
Cl -0.033258213581 -0.00400523604 2.582562180212
