12
Coordinates from XML
N 1.07142 -0.652823 -2.21587
C 0.168773 0.594672 -2.07418
H 2.0594 -0.392028 -2.25678
H 0.838946 -1.16736 -3.06888
H 0.937713 -1.28305 -1.4213
H 0.394517 1.22358 -2.93248
H 0.500047 1.0997 -1.16953
C -1.29609 0.193894 -2.01466
H -1.62176 -0.314612 -2.92343
H -1.90307 1.09342 -1.91483
H -1.51573 -0.439461 -1.15379
Cl -0.0332582 -0.00400524 2.77584
