12
Coordinates from XML
N 1.26629 -0.383425 -0.744174
C 0.866292 -0.0514249 -2.11117
H 2.05629 0.152575 -0.377174
H 1.39529 -1.37542 -0.531174
H 0.507292 -0.101425 -0.0531737
H 1.71929 -0.274425 -2.75817
H 0.659292 1.02158 -2.14117
C -0.346708 -0.866425 -2.50317
H -0.140708 -1.94042 -2.43917
H -0.635708 -0.639425 -3.53417
H -1.20171 -0.644425 -1.85817
Cl -0.81102 0.578071 2.27609
