12
Coordinates from XML
N 1.266291897443 -0.383424850633 -0.744173703232
C 0.866291897443 -0.051424850633 -2.111173703232
H 2.056291897443 0.152575149367 -0.377173703232
H 1.395291897443 -1.375424850633 -0.531173703232
H 0.507291897443 -0.101424850633 -0.053173703232
H 1.719291897443 -0.274424850633 -2.758173703232
H 0.659291897443 1.021575149367 -2.141173703232
C -0.346708102557 -0.866424850633 -2.503173703232
H -0.140708102557 -1.940424850633 -2.439173703232
H -0.635708102557 -0.639424850633 -3.534173703232
H -1.201708102557 -0.644424850633 -1.858173703232
Cl -0.811019797117 0.578070662792 2.276094730813
