12
Coordinates from XML
N 1.275121240036 -0.387975746072 -0.75977389026
C 0.875121240036 -0.055975746072 -2.12677389026
H 2.065121240036 0.148024253928 -0.39277389026
H 1.404121240036 -1.379975746072 -0.54677389026
H 0.516121240036 -0.105975746072 -0.06877389026
H 1.728121240036 -0.278975746072 -2.77377389026
H 0.668121240036 1.017024253928 -2.15677389026
C -0.337878759964 -0.870975746072 -2.51877389026
H -0.131878759964 -1.944975746072 -2.45477389026
H -0.626878759964 -0.643975746072 -3.54977389026
H -1.192878759964 -0.648975746072 -1.87377389026
Cl -0.822650994272 0.584065714126 2.296645394587
