12
Coordinates from XML
N 1.28395 -0.392527 -0.775374
C 0.883951 -0.0605266 -2.14237
H 2.07395 0.143473 -0.408374
H 1.41295 -1.38453 -0.562374
H 0.524951 -0.110527 -0.0843741
H 1.73695 -0.283527 -2.78937
H 0.676951 1.01247 -2.17237
C -0.329049 -0.875527 -2.53437
H -0.123049 -1.94953 -2.47037
H -0.618049 -0.648527 -3.56537
H -1.18405 -0.653527 -1.88937
Cl -0.834282 0.590061 2.3172
