12
Coordinates from XML
N 1.292779925223 -0.397077536951 -0.790974264315
C 0.892779925223 -0.065077536951 -2.157974264315
H 2.082779925223 0.138922463049 -0.423974264315
H 1.421779925223 -1.389077536951 -0.577974264315
H 0.533779925223 -0.115077536951 -0.099974264315
H 1.745779925223 -0.288077536951 -2.804974264315
H 0.685779925223 1.007922463049 -2.187974264315
C -0.320220074777 -0.880077536951 -2.549974264315
H -0.114220074777 -1.954077536951 -2.485974264315
H -0.609220074777 -0.653077536951 -3.580974264315
H -1.175220074777 -0.658077536951 -1.904974264315
Cl -0.845913388584 0.596055816794 2.337746722136
