12
Coordinates from XML
N 1.310438610409 -0.40617932783 -0.82217463837
C 0.910438610409 -0.07417932783 -2.18917463837
H 2.100438610409 0.12982067217 -0.45517463837
H 1.439438610409 -1.39817932783 -0.60917463837
H 0.551438610409 -0.12417932783 -0.13117463837
H 1.763438610409 -0.29717932783 -2.83617463837
H 0.703438610409 0.99882067217 -2.21917463837
C -0.302561389591 -0.88917932783 -2.58117463837
H -0.096561389591 -1.96317932783 -2.51717463837
H -0.591561389591 -0.66217932783 -3.61217463837
H -1.157561389591 -0.66717932783 -1.93617463837
Cl -0.869175782895 0.608045919462 2.378848049685
