12
Coordinates from XML
N 1.319267953002 -0.41073022327 -0.837774825398
C 0.919267953002 -0.07873022327 -2.204774825398
H 2.109267953002 0.12526977673 -0.470774825398
H 1.448267953002 -1.40273022327 -0.624774825398
H 0.560267953002 -0.12873022327 -0.146774825398
H 1.772267953002 -0.30173022327 -2.851774825398
H 0.712267953002 0.99426977673 -2.234774825398
C -0.293732046998 -0.89373022327 -2.596774825398
H -0.087732046998 -1.96773022327 -2.532774825398
H -0.582732046998 -0.66673022327 -3.627774825398
H -1.148732046998 -0.67173022327 -1.951774825398
Cl -0.880806980051 0.614040970796 2.399398713459
