12
Coordinates from XML
N 1.3281 -0.415281 -0.853375
C 0.928097 -0.0832811 -2.22038
H 2.1181 0.120719 -0.486375
H 1.4571 -1.40728 -0.640375
H 0.569097 -0.133281 -0.162375
H 1.7811 -0.306281 -2.86738
H 0.721097 0.989719 -2.25038
C -0.284903 -0.898281 -2.61238
H -0.0789027 -1.97228 -2.54838
H -0.573903 -0.671281 -3.64338
H -1.1399 -0.676281 -1.96738
Cl -0.892438 0.620036 2.41995
