12
Coordinates from XML
N 1.328097295596 -0.415281118709 -0.853375012425
C 0.928097295596 -0.083281118709 -2.220375012425
H 2.118097295596 0.120718881291 -0.486375012425
H 1.457097295596 -1.407281118709 -0.640375012425
H 0.569097295596 -0.133281118709 -0.162375012425
H 1.781097295596 -0.306281118709 -2.867375012425
H 0.721097295596 0.989718881291 -2.250375012425
C -0.284902704404 -0.898281118709 -2.612375012425
H -0.078902704404 -1.972281118709 -2.548375012425
H -0.573902704404 -0.671281118709 -3.643375012425
H -1.139902704404 -0.676281118709 -1.967375012425
Cl -0.892438177206 0.620036022129 2.419949377234
