12
Coordinates from XML
N 1.354585323376 -0.428933805028 -0.900175573508
C 0.954585323376 -0.096933805028 -2.267175573508
H 2.144585323376 0.107066194972 -0.533175573508
H 1.483585323376 -1.420933805028 -0.687175573508
H 0.595585323376 -0.146933805028 -0.209175573508
H 1.807585323376 -0.319933805028 -2.914175573508
H 0.747585323376 0.976066194972 -2.297175573508
C -0.258414676624 -0.911933805028 -2.659175573508
H -0.052414676624 -1.985933805028 -2.595175573508
H -0.547414676624 -0.684933805028 -3.690175573508
H -1.113414676624 -0.689933805028 -2.014175573508
Cl -0.927331768673 0.638021176131 2.481601368557
