12
Coordinates from XML
N -0.938136 0.830982 -1.78246
C 0.341815 0.0550065 -1.39427
H -1.19767 1.50331 -1.05692
H -1.72028 0.185715 -1.91773
H -0.795443 1.34113 -2.65756
H 0.120237 -0.427242 -0.444801
H 1.10984 0.808981 -1.23659
C 0.716638 -0.940407 -2.47994
H -0.0585689 -1.6923 -2.6355
H 1.62009 -1.46861 -2.17612
H 0.934417 -0.451242 -3.43061
Cl 0.0120858 -0.0231537 2.49159
