12
Coordinates from XML
N -0.938135528738 0.830982362531 -1.782464135632
C 0.341814672358 0.05500648151 -1.394274718941
H -1.197672411322 1.503306917364 -1.056923988036
H -1.720275052805 0.185714601338 -1.917728091641
H -0.795443353169 1.341127878989 -2.657564475968
H 0.120237081708 -0.427242107262 -0.444800982782
H 1.109840134324 0.808980506348 -1.236589404895
C 0.716637803761 -0.940407140448 -2.479936733737
H -0.058568911053 -1.692303724146 -2.635497203186
H 1.620092402896 -1.468614888498 -2.176116010728
H 0.934416795754 -0.451242004675 -3.430607018154
Cl 0.012085784883 -0.023153737904 2.491590657845
