12
Coordinates from XML
N -0.938135528738 0.830982362531 -1.972337461982
C 0.341814672358 0.05500648151 -1.584148045291
H -1.197672411322 1.503306917364 -1.246797314386
H -1.720275052805 0.185714601338 -2.107601417991
H -0.795443353169 1.341127878989 -2.847437802318
H 0.120237081708 -0.427242107262 -0.634674309132
H 1.109840134324 0.808980506348 -1.426462731244
C 0.716637803761 -0.940407140448 -2.669810060086
H -0.058568911053 -1.692303724146 -2.825370529536
H 1.620092402896 -1.468614888498 -2.365989337078
H 0.934416795754 -0.451242004675 -3.620480344503
Cl 0.012085784883 -0.023153737904 2.741717331496
