12
Coordinates from XML
N -0.938136 0.830982 -1.97234
C 0.341815 0.0550065 -1.58415
H -1.19767 1.50331 -1.2468
H -1.72028 0.185715 -2.1076
H -0.795443 1.34113 -2.84744
H 0.120237 -0.427242 -0.634674
H 1.10984 0.808981 -1.42646
C 0.716638 -0.940407 -2.66981
H -0.0585689 -1.6923 -2.82537
H 1.62009 -1.46861 -2.36599
H 0.934417 -0.451242 -3.62048
Cl 0.0120858 -0.0231537 2.74172
