12
Coordinates from XML
N 1.22799 0.112677 -1.8355
C -0.285371 0.411385 -1.94334
H 1.76808 0.703413 -2.47199
H 1.41667 -0.865778 -2.06665
H 1.55859 0.280726 -0.882151
H -0.547752 0.243081 -2.98545
H -0.395953 1.46975 -1.71788
C -1.07648 -0.472556 -0.993181
H -0.959412 -1.53285 -1.22246
H -2.13577 -0.237253 -1.09363
H -0.806622 -0.301733 0.0501209
Cl -0.0214581 -0.0171938 2.09981
