12
Coordinates from XML
N 1.22799 0.112677 -1.88728
C -0.285371 0.411385 -1.99512
H 1.76808 0.703413 -2.52377
H 1.41667 -0.865778 -2.11843
H 1.55859 0.280726 -0.933935
H -0.547752 0.243081 -3.03723
H -0.395953 1.46975 -1.76966
C -1.07648 -0.472556 -1.04497
H -0.959412 -1.53285 -1.27425
H -2.13577 -0.237253 -1.14541
H -0.806622 -0.301733 -0.00166275
Cl -0.0214581 -0.0171938 2.16802
