12
Coordinates from XML
N 1.227985119742 0.112677215003 -2.077156018527
C -0.285371065662 0.411384711775 -2.184993840805
H 1.768076037792 0.703412827222 -2.713647529014
H 1.416671881223 -0.865778422372 -2.308307328859
H 1.558586024127 0.280726173654 -1.123807865907
H -0.547751707636 0.243081335236 -3.227102797618
H -0.395953256195 1.469754136862 -1.959537996344
C -1.076481508425 -0.472556243414 -1.234838419794
H -0.959412363971 -1.532847899205 -1.464118604287
H -2.135765664283 -0.237252673495 -1.335287295637
H -0.806622438891 -0.301733214911 -0.191536074064
Cl -0.021458085653 -0.017193823059 2.418151475377
