12
Coordinates from XML
N 1.227985119742 0.112677215003 -2.128939652986
C -0.285371065662 0.411384711775 -2.236777475264
H 1.768076037792 0.703412827222 -2.765431163473
H 1.416671881223 -0.865778422372 -2.360090963318
H 1.558586024127 0.280726173654 -1.175591500366
H -0.547751707636 0.243081335236 -3.278886432077
H -0.395953256195 1.469754136862 -2.011321630803
C -1.076481508425 -0.472556243414 -1.286622054253
H -0.959412363971 -1.532847899205 -1.515902238746
H -2.135765664283 -0.237252673495 -1.387070930096
H -0.806622438891 -0.301733214911 -0.243319708523
Cl -0.021458085653 -0.017193823059 2.486367840918
