9
Coordinates from XML
N 0.178803598897 0.117823316837 -3.179154804991
C -0.204726966477 -0.134916810887 -1.776867946584
H -0.235199619304 -0.578923285602 -3.812308220294
H 1.199324505127 0.079219738531 -3.301330308628
H -0.135434732006 1.045826139645 -3.492178976983
H 0.155162574327 -1.129327607621 -1.506288539093
H -1.293200225272 -0.080584598674 -1.713346410045
H 0.263436642023 0.633669793282 -1.158910789841
Cl -2.3058259e-05 -1.5195965e-05 2.314687658503
