9
Coordinates from XML
N 0.469775035671 0.493721614149 -2.087010184322
C -0.537867319698 -0.565304555931 -1.885758712888
H 1.321249327305 0.121916321647 -2.528020496166
H 0.745920398666 0.922828936092 -1.193986861698
H 0.109795805568 1.243361627056 -2.692298466832
H -0.097678835257 -1.326473196626 -1.238887065196
H -0.787892135437 -0.978778833822 -2.864680376269
H -1.412217490715 -0.109602216909 -1.417121607387
Cl -6.0579064e-05 -6.3669935e-05 1.826827142078
