9
Coordinates from XML
N 0.374516537762 0.279865155027 -1.832913147165
C -0.428798316533 -0.320436469926 -2.915366335044
H 1.206295625215 0.757410771482 -2.204169761761
H 0.698839116324 -0.433753238773 -1.166997489543
H -0.169622942766 0.973254408617 -1.302778571104
H 0.201142183911 -1.043237413796 -3.437209502519
H -0.74116094305 0.483463959 -3.584645574173
H -1.291853203538 -0.809048585787 -2.459111973694
Cl -4.8294707e-05 -3.60904e-05 2.142377694444
