9
Coordinates from XML
N 0.677002985826 0.087117717914 -2.178891684354
C -0.775147730556 -0.099749213092 -2.36252378124
H 1.006166596917 -0.361539574403 -1.313966432564
H 0.92238778071 1.084380710213 -2.122919935857
H 1.208838280171 -0.319046428939 -2.959981311414
H -1.280666064885 0.350193531209 -1.506025520584
H -0.969907712852 -1.172669344912 -2.414214689852
H -1.060755045977 0.396323626113 -3.292100985985
Cl -8.7304067e-05 -1.1234718e-05 2.075480397166
