16
Coordinates from XML
N -2.68983 0.0804178 -1.25396
C -1.41983 -0.0925822 -0.470957
H -3.01983 -0.832582 -1.60396
H -2.52783 0.706418 -2.05896
H -3.42383 0.492418 -0.654957
H -0.65983 -0.522582 -1.12796
H -1.58183 -0.754582 0.384043
H -1.08883 0.887418 -0.117957
N 1.75302 -0.419019 1.34178
C 2.48202 0.473981 0.37478
H 0.762017 -0.521019 1.06478
H 1.78302 -0.025019 2.29678
H 2.18102 -1.35902 1.36478
H 1.99302 1.45298 0.36578
H 2.41602 0.033981 -0.62422
H 3.53602 0.604981 0.63678
