16
Coordinates from XML
N -2.689830069144 0.080417832093 -1.253957211313
C -1.419830069144 -0.092582167907 -0.470957211313
H -3.019830069144 -0.832582167907 -1.603957211313
H -2.527830069144 0.706417832093 -2.058957211313
H -3.423830069144 0.492417832093 -0.654957211313
H -0.659830069144 -0.522582167907 -1.127957211313
H -1.581830069144 -0.754582167907 0.384042788687
H -1.088830069144 0.887417832093 -0.117957211313
N 1.753017299277 -0.419019010013 1.341779630792
C 2.482017299277 0.473980989987 0.374779630792
H 0.762017299277 -0.521019010013 1.064779630792
H 1.783017299277 -0.025019010013 2.296779630792
H 2.181017299277 -1.359019010013 1.364779630792
H 1.993017299277 1.452980989987 0.365779630792
H 2.416017299277 0.033980989987 -0.624220369208
H 3.536017299277 0.604980989987 0.636779630792
