16
Coordinates from XML
N -2.737127437565 0.075704674198 -1.267694053419
C -1.467127437565 -0.097295325802 -0.484694053419
H -3.067127437565 -0.837295325802 -1.617694053419
H -2.575127437565 0.701704674198 -2.072694053419
H -3.471127437565 0.487704674198 -0.668694053419
H -0.707127437565 -0.527295325802 -1.141694053419
H -1.629127437565 -0.759295325802 0.370305946581
H -1.136127437565 0.882704674198 -0.131694053419
N 1.800314667698 -0.414305852118 1.355516472897
C 2.529314667698 0.478694147882 0.388516472897
H 0.809314667698 -0.516305852118 1.078516472897
H 1.830314667698 -0.020305852118 2.310516472897
H 2.228314667698 -1.354305852118 1.378516472897
H 2.040314667698 1.457694147882 0.379516472897
H 2.463314667698 0.038694147882 -0.610483527103
H 3.583314667698 0.609694147882 0.650516472897
