16
Coordinates from XML
N -2.75289 0.0741336 -1.27227
C -1.48289 -0.0988664 -0.489273
H -3.08289 -0.838866 -1.62227
H -2.59089 0.700134 -2.07727
H -3.48689 0.486134 -0.673273
H -0.722893 -0.528866 -1.14627
H -1.64489 -0.760866 0.365727
H -1.15189 0.881134 -0.136273
N 1.81608 -0.412735 1.3601
C 2.54508 0.480265 0.393095
H 0.82508 -0.514735 1.0831
H 1.84608 -0.0187348 2.3151
H 2.24408 -1.35273 1.3831
H 2.05608 1.45927 0.384095
H 2.47908 0.0402652 -0.605905
H 3.59908 0.611265 0.655095
