16
Coordinates from XML
N -2.752893227039 0.074133621566 -1.272273000787
C -1.482893227039 -0.098866378434 -0.489273000787
H -3.082893227039 -0.838866378434 -1.622273000787
H -2.590893227039 0.700133621566 -2.077273000787
H -3.486893227039 0.486133621566 -0.673273000787
H -0.722893227039 -0.528866378434 -1.146273000787
H -1.644893227039 -0.760866378434 0.365726999213
H -1.151893227039 0.881133621566 -0.136273000787
N 1.816080457172 -0.412734799486 1.360095420266
C 2.545080457172 0.480265200514 0.393095420266
H 0.825080457172 -0.514734799486 1.083095420266
H 1.846080457172 -0.018734799486 2.315095420266
H 2.244080457172 -1.352734799486 1.383095420266
H 2.056080457172 1.459265200514 0.384095420266
H 2.479080457172 0.040265200514 -0.605904579734
H 3.599080457172 0.611265200514 0.655095420266
