16
Coordinates from XML
N -2.579469542828 0.091415200514 -1.221904579734
C -1.309469542828 -0.081584799486 -0.438904579734
H -2.909469542828 -0.821584799486 -1.571904579734
H -2.417469542828 0.717415200514 -2.026904579734
H -3.313469542828 0.503415200514 -0.622904579734
H -0.549469542828 -0.511584799486 -1.095904579734
H -1.471469542828 -0.743584799486 0.416095420266
H -0.978469542828 0.898415200514 -0.085904579734
N 1.642656772961 -0.430016378434 1.309726999213
C 2.371656772961 0.462983621566 0.342726999213
H 0.651656772961 -0.532016378434 1.032726999213
H 1.672656772961 -0.036016378434 2.264726999213
H 2.070656772961 -1.370016378434 1.332726999213
H 1.882656772961 1.441983621566 0.333726999213
H 2.305656772961 0.022983621566 -0.656273000787
H 3.425656772961 0.593983621566 0.604726999213
