16
Coordinates from XML
N -2.46911 0.102413 -1.18985
C -1.19911 -0.0705874 -0.406852
H -2.79911 -0.810587 -1.53985
H -2.30711 0.728413 -1.99485
H -3.20311 0.514413 -0.590852
H -0.439109 -0.500587 -1.06385
H -1.36111 -0.732587 0.448148
H -0.868109 0.909413 -0.0538519
N 1.5323 -0.441014 1.27767
C 2.2613 0.451986 0.310674
H 0.541296 -0.543014 1.00067
H 1.5623 -0.0470137 2.23267
H 1.9603 -1.38101 1.30067
H 1.7723 1.43099 0.301674
H 2.1953 0.0119863 -0.688326
H 3.3153 0.582986 0.572674
