16
Coordinates from XML
N -2.332472174407 0.116028358408 -1.150167737629
C -1.062472174407 -0.056971641592 -0.367167737629
H -2.662472174407 -0.796971641592 -1.500167737629
H -2.170472174407 0.742028358408 -1.955167737629
H -3.066472174407 0.528028358408 -0.551167737629
H -0.302472174407 -0.486971641592 -1.024167737629
H -1.224472174407 -0.718971641592 0.487832262371
H -0.731472174407 0.923028358408 -0.014167737629
N 1.39565940454 -0.454629536328 1.237990157108
C 2.12465940454 0.438370463672 0.270990157108
H 0.40465940454 -0.556629536328 0.960990157108
H 1.42565940454 -0.060629536328 2.192990157108
H 1.82365940454 -1.394629536328 1.260990157108
H 1.63565940454 1.417370463672 0.261990157108
H 2.05865940454 -0.001629536328 -0.728009842892
H 3.17865940454 0.569370463672 0.532990157108
