16
Coordinates from XML
N -2.33247 0.116028 -1.15017
C -1.06247 -0.0569716 -0.367168
H -2.66247 -0.796972 -1.50017
H -2.17047 0.742028 -1.95517
H -3.06647 0.528028 -0.551168
H -0.302472 -0.486972 -1.02417
H -1.22447 -0.718972 0.487832
H -0.731472 0.923028 -0.0141677
N 1.39566 -0.45463 1.23799
C 2.12466 0.43837 0.27099
H 0.404659 -0.55663 0.96099
H 1.42566 -0.0606295 2.19299
H 1.82366 -1.39463 1.26099
H 1.63566 1.41737 0.26199
H 2.05866 -0.00162954 -0.72801
H 3.17866 0.56937 0.53299
