16
Coordinates from XML
N -0.427058 -0.367996 -2.86418
C 0.48904 0.421273 -2.01849
H -1.29109 -0.606221 -2.35977
H 0.00792406 -1.24966 -3.1664
H -0.695888 0.150558 -3.71079
H 0.735645 -0.180256 -1.1416
H -0.0280644 1.3391 -1.73219
H 1.38151 0.640904 -2.60758
N -0.256576 0.242936 1.8798
C 0.293898 -0.278037 3.14588
H -0.0427534 1.2419 1.76113
H -1.27926 0.139122 1.84498
H 0.132838 -0.255402 1.06867
H -0.155773 0.28828 3.9636
H 1.3765 -0.139736 3.12133
H 0.0347411 -1.33644 3.21223
