16
Coordinates from XML
N -0.427057628503 -0.367995630883 -2.864182732823
C 0.489040480826 0.421272638013 -2.018486833697
H -1.291091682421 -0.606220627335 -2.359770456272
H 0.007924064403 -1.249661999534 -3.166400123495
H -0.695888375416 0.150558130593 -3.710794288363
H 0.735644900019 -0.180255883198 -1.141596744459
H -0.028064392934 1.33909644341 -1.732194986487
H 1.381511686065 0.640903928276 -2.607580055654
N -0.256575564191 0.242935547354 1.879804838078
C 0.293897765124 -0.278037313016 3.145880701709
H -0.042753433797 1.24190191677 1.761128684913
H -1.279263236607 0.139122428927 1.844979974393
H 0.132838200255 -0.255401728276 1.06867230897
H -0.155772895613 0.28828018821 3.963601506554
H 1.376501532447 -0.139736199222 3.121326783437
H 0.03474110325 -1.336436469721 3.212233016612
