16
Coordinates from XML
N 0.440701484816 0.225318387072 -2.152205919977
C -0.504705463744 -0.257875209556 -3.176955328268
H 1.17580114136 -0.46876413985 -1.963484747956
H -0.037715489063 0.419037544582 -1.262559868382
H 0.904248290489 1.093923146716 -2.44981175069
H -0.96113010256 -1.176480103737 -2.8035545684
H 0.06097358871 -0.444286644125 -4.09184275122
H -1.255808047908 0.519177682978 -3.331251440552
N 0.396685232868 -0.424091679664 2.261136296739
C -0.454325033248 0.485501962571 3.052213178573
H 0.263426860639 -1.40358424408 2.544992356185
H 1.393860546966 -0.200911523351 2.378234634823
H 0.181194890125 -0.360694268856 1.257411344131
H -0.178561982672 0.371955996453 4.102283930244
H -1.494446940281 0.198541049155 2.886198532588
H -0.267775290907 1.503598503322 2.705150925737
