16
Coordinates from XML
N 0.164848 0.154634 -1.95034
C -0.188763 -0.17697 -3.34403
H 0.797331 0.96445 -1.90672
H 0.637253 -0.632311 -1.48619
H -0.670689 0.384314 -1.39623
H 0.735206 -0.409895 -3.87659
H -0.683952 0.693266 -3.77905
H -0.857721 -1.03942 -3.32265
N 0.0913792 -0.265749 3.22783
C -0.104668 0.304222 1.88095
H 0.880279 -0.925369 3.24443
H -0.744323 -0.7748 3.54461
H 0.287449 0.468727 3.92067
H -0.307805 -0.520753 1.19558
H 0.811799 0.828522 1.60354
H -0.9511 0.991961 1.92935
