16
Coordinates from XML
N 0.164848161713 0.154634409985 -1.950340458848
C -0.188763157004 -0.176969992684 -3.344033127769
H 0.797330935692 0.964449567656 -1.906720612126
H 0.637253032802 -0.632310711753 -1.486194982576
H -0.670689386176 0.384313839476 -1.396225429511
H 0.735206154903 -0.409894913873 -3.876586619677
H -0.683952327304 0.693266421578 -3.779047241231
H -0.857720986838 -1.039415309764 -3.32265376972
N 0.091379176498 -0.265748832707 3.227830901432
C -0.104668406511 0.304221826803 1.880952847377
H 0.880279270036 -0.92536904909 3.244430677188
H -0.744322781688 -0.774800403985 3.544609601573
H 0.287449256165 0.46872747041 3.920665790867
H -0.307805023069 -0.520753190681 1.195578303394
H 0.811798713248 0.828522362471 1.60353983993
H -0.951099885949 0.991960838141 1.929351017794
