16
Coordinates from XML
N 0.29755 -0.269446 -3.08873
C -0.340489 0.308477 -1.89027
H 1.09971 0.296193 -3.39584
H -0.362565 -0.323195 -3.87564
H 0.641529 -1.22174 -2.90778
H -0.682332 1.31322 -2.14564
H 0.407213 0.338343 -1.09541
H -1.17952 -0.333863 -1.61606
N -0.669134 0.15967 2.52124
C 0.766059 -0.182741 2.5402
H -0.969306 0.566088 3.41704
H -1.25034 -0.67106 2.34812
H -0.881229 0.844813 1.78401
H 0.925481 -0.909299 3.33913
H 1.32605 0.735537 2.72712
H 1.02105 -0.606879 1.56713
