16
Coordinates from XML
N 0.0997915 0.0077472 -2.96053
C -0.114325 -0.00877549 -1.50065
H 1.10072 0.0559421 -3.19197
H -0.358192 0.818526 -3.3973
H -0.280138 -0.838636 -3.40461
H 0.308393 0.910391 -1.09073
H 0.393174 -0.887731 -1.09859
H -1.18997 -0.0602896 -1.32147
N 0.268671 -0.308725 1.72715
C -0.307641 0.35349 2.9132
H 1.28603 -0.166903 1.67607
H -0.13908 0.0590392 0.857455
H 0.0980413 -1.32288 1.74425
H -0.0941717 1.42124 2.8362
H 0.163186 -0.0781749 3.7985
H -1.38326 0.166912 2.91017
