16
Coordinates from XML
N -0.17662514802 0.114661666006 -3.074926916034
C 0.202365654146 -0.13138093748 -1.670216729147
H -0.030062642923 1.098638482194 -3.335784726542
H -1.167899671389 -0.104764802719 -3.239568509026
H 0.37929948522 -0.462546614988 -3.719672992028
H -0.419519387532 0.506966354802 -1.039853136153
H 1.259327033476 0.118833491449 -1.56073434627
H 0.02465610811 -1.187067880893 -1.45639910884
N -0.466417251604 0.376356305658 2.757763062251
C 0.534097226789 -0.430942553179 2.033455785573
H -0.381384942187 1.374732321076 2.525917039656
H -0.355786908974 0.284677142197 3.776210836207
H -1.424400722216 0.084632946821 2.52306271725
H 1.524229401106 -0.074697624059 2.323825132885
H 0.364787860289 -0.291709125819 0.964012284905
H 0.392473369338 -1.47458090812 2.320745268666
