16
Coordinates from XML
N 0.201057 -0.481155 -2.0813
C -0.230362 0.550797 -3.04376
H -0.0939435 -0.247627 -1.12412
H 1.2246 -0.582028 -2.07371
H -0.198738 -1.4001 -2.31285
H 0.224711 1.49702 -2.74515
H -1.31976 0.60944 -3.00459
H 0.111019 0.24648 -4.03503
N 0.535129 0.43017 2.57313
C -0.612772 -0.492393 2.48048
H 0.500501 1.14667 1.83613
H 1.42779 -0.0713284 2.47545
H 0.551718 0.917996 3.47848
H -0.574199 -0.976286 1.50275
H -1.52486 0.0972061 2.59103
H -0.518612 -1.22444 3.28485
