16
Coordinates from XML
N -0.0310037 0.276963 -3.01904
C 0.0354975 -0.317134 -1.66996
H 0.399444 1.2108 -3.03891
H -1.0041 0.377954 -3.33648
H 0.460911 -0.305327 -3.7096
H -0.501554 0.343883 -0.987157
H 1.08812 -0.397463 -1.39193
H -0.434879 -1.30126 -1.71491
N 0.00853665 0.101971 3.07036
C -0.00977696 -0.116828 1.61119
H -0.932108 0.311126 3.42977
H 0.618844 0.890224 3.32346
H 0.352948 -0.728747 3.56956
H -0.382507 0.795298 1.14142
H -0.671116 -0.96138 1.4084
H 1.01191 -0.333042 1.2931
