16
Coordinates from XML
N 0.396228486734 0.186857014027 -2.890325453159
C -0.453662302837 -0.213948726647 -1.752598726724
H -0.170849438767 0.478269675273 -3.697319274247
H 0.9988027648 -0.587421353212 -3.198995599819
H 1.008355371536 0.975061670392 -2.641421462457
H -1.075917288169 -1.049446094804 -2.078680635194
H -1.065662149901 0.645949744095 -1.473686881851
H 0.203633618427 -0.51040261937 -0.93293370894
N -0.075166360056 -0.003698415538 1.676264680765
C 0.085938479828 0.004188581944 3.143017804448
H -0.621916717918 0.805968330594 1.354952455061
H -0.561681205157 -0.851884643669 1.357260859618
H 0.835412534451 0.028704908532 1.199069540945
H -0.909972258421 -0.031415644529 3.588529499578
H 0.605917454469 0.924160516677 3.416942091861
H 0.671352232294 -0.874836104328 3.419386976659
