16
Coordinates from XML
N -0.111736 -0.464091 -2.15472
C 0.127834 0.53139 -3.21726
H 0.327045 -1.36639 -2.3807
H -1.11718 -0.634015 -2.02019
H 0.272327 -0.150238 -1.25366
H -0.300725 0.141852 -4.14257
H 1.20703 0.666754 -3.31092
H -0.36012 1.46149 -2.91963
N 0.359999 -0.0857619 3.22984
C -0.412148 0.0983334 1.98594
H 1.2442 0.438848 3.20317
H 0.592157 -1.07586 3.38374
H -0.168152 0.239388 4.05036
H 0.198905 -0.263575 1.15695
H -0.626038 1.16362 1.8802
H -1.33363 -0.480028 2.07622
