16
Coordinates from XML
N 0.433616169751 0.457325474873 -1.934261310408
C -0.496406407661 -0.52381006587 -2.525711017648
H 0.430783439443 0.404468449751 -0.907160609145
H 0.179496105753 1.419175492174 -2.195312162334
H 1.399169262556 0.295893881482 -2.249802378464
H -1.498231612043 -0.300295475405 -2.154262477855
H -0.174868585599 -1.519193293072 -2.2133223655
H -0.44745854088 -0.418094740759 -3.611161134592
N -0.2845478513 0.625757035336 2.235730305154
C 0.325686152602 -0.716607377513 2.18046780794
H 0.404367717328 1.339731947487 2.506604637864
H -1.051764579509 0.660755677966 2.919860115182
H -0.671287194113 0.899469803471 1.322804732458
H 0.715190004674 -0.947491303478 3.173728041692
H 1.12813893935 -0.688484577353 1.440846524342
H -0.452005557558 -1.425225633565 1.889213020618
