16
Coordinates from XML
N -0.493621 -0.436685 -1.99253
C 0.565138 0.499818 -2.41605
H -1.39979 -0.193112 -2.41356
H -0.614729 -0.428335 -0.971182
H -0.272925 -1.40218 -2.27008
H 0.273561 1.50124 -2.09399
H 0.644416 0.444645 -3.50345
H 1.49631 0.189304 -1.93828
N 0.133806 0.646015 1.99478
C -0.153073 -0.739544 2.41348
H -0.293695 1.32732 2.63572
H -0.231821 0.836036 1.05239
H 1.14556 0.830293 1.97712
H -1.23669 -0.871257 2.41196
H 0.25779 -0.877507 3.41543
H 0.325018 -1.41058 1.6973
