16
Coordinates from XML
N -0.49362071241 -0.436685246306 -1.992525763927
C 0.565137722517 0.499818349488 -2.416050605627
H -1.399786821588 -0.193112232227 -2.41356365936
H -0.614729212858 -0.42833535937 -0.971182031138
H -0.272924754287 -1.402178186637 -2.270078959259
H 0.273561154841 1.501241997879 -2.093994226052
H 0.644416429062 0.444644722143 -3.5034473904
H 1.496314357951 0.189303641419 -1.93828050433
N 0.133805925055 0.646015208068 1.994777533307
C -0.153073129115 -0.739543855687 2.413475741002
H -0.29369493728 1.327318683232 2.635719283728
H -0.231820736702 0.836036101582 1.052392678675
H 1.145561245758 0.830293412726 1.977119268494
H -1.236694750953 -0.871257189863 2.411956436822
H 0.257790229949 -0.877507392074 3.41543301195
H 0.325017962971 -1.410581475678 1.697297690358
