16
Coordinates from XML
N -0.117522 0.505334 -3.23188
C 0.134582 -0.578452 -2.26274
H 0.447292 1.33788 -3.01836
H -1.10539 0.791594 -3.22536
H 0.113377 0.212185 -4.19035
H -0.128415 -0.207023 -1.27054
H 1.1941 -0.835703 -2.31754
H -0.490763 -1.42851 -2.54225
N -0.0575363 -0.469999 3.27916
C 0.0659173 0.538002 2.20861
H -0.0548998 -0.0310961 4.20927
H 0.720194 -1.14252 3.25215
H -0.931958 -1.00445 3.19163
H 1.00861 1.0682 2.35628
H -0.78407 1.21812 2.29064
H 0.056942 0.0120088 1.25204
