16
Coordinates from XML
N 0.364652 0.000316741 -1.97661
C -0.417389 -0.00022632 -3.22793
H 1.10091 -0.717552 -1.99452
H -0.232824 -0.189491 -1.16121
H 0.821622 0.908493 -1.82069
H -0.874729 -0.985552 -3.33544
H 0.269435 0.205758 -4.0511
H -1.17781 0.77885 -3.14681
N -0.435879 -0.515654 2.42801
C 0.498961 0.590421 2.71095
H -0.908962 -0.384582 1.52427
H -1.16394 -0.585237 3.15118
H 0.0530399 -1.4199 2.39313
H -0.0775707 1.51704 2.73492
H 1.24294 0.611463 1.91231
H 0.96628 0.393634 3.67773
