16
Coordinates from XML
N -0.108148 0.210621 -3.33593
C 0.123974 -0.241056 -1.95048
H -1.06949 0.553586 -3.46219
H 0.0387049 -0.553355 -4.00873
H 0.529597 0.975727 -3.59248
H -0.579374 -1.04899 -1.74039
H -0.0468064 0.610169 -1.28865
H 1.15578 -0.590947 -1.88176
N -0.55195 -0.354129 2.89792
C 0.631995 0.405418 2.45211
H -1.37604 -0.135113 2.32291
H -0.78994 -0.137775 3.87487
H -0.391837 -1.36824 2.83573
H 0.399977 1.46831 2.5416
H 0.831936 0.133255 1.41398
H 1.46794 0.130273 3.09808
