16
Coordinates from XML
N -0.414456 -0.347484 -2.54524
C 0.474349 0.397795 -1.63312
H -1.36015 0.0564818 -2.56006
H -0.502923 -1.33196 -2.26088
H -0.0573822 -0.334874 -3.50974
H 0.0431754 0.347356 -0.631554
H 0.526577 1.42934 -1.98659
H 1.4568 -0.0773167 -1.66203
N 0.638993 0.247574 2.18119
C -0.731512 -0.283368 2.05005
H 0.962581 0.671074 1.3016
H 1.30599 -0.49439 2.43115
H 0.692583 0.970514 2.91085
H -0.722142 -1.04165 1.26487
H -1.38779 0.547875 1.78528
H -1.01511 -0.716749 3.01105
