16
Coordinates from XML
N -0.278213 0.628935 -2.11704
C 0.318553 -0.720102 -2.08028
H 0.0145327 1.19043 -1.30663
H -1.30575 0.584542 -2.1078
H 0.00184047 1.13963 -2.96479
H -0.0147452 -1.20778 -1.16231
H 1.40414 -0.605503 -2.09211
H -0.028536 -1.26291 -2.96157
N -0.00863074 -0.0530633 1.41417
C 0.00996699 0.0605618 2.88527
H -0.0545635 -1.03591 1.11477
H 0.83593 0.358716 0.995799
H -0.821415 0.431553 1.01112
H 0.890953 -0.470794 3.25011
H -0.907374 -0.391853 3.2668
H 0.0588687 1.12154 3.13765
