16
Coordinates from XML
N 0.601579 0.325446 -2.25451
C -0.68864 -0.37252 -2.09463
H 0.543991 1.29898 -1.92794
H 0.896749 0.346436 -3.23955
H 1.34705 -0.137407 -1.71789
H -1.43391 0.164021 -2.68478
H -0.945394 -0.360926 -1.03364
H -0.562525 -1.3946 -2.45688
N -0.56464 -0.336411 1.9766
C 0.646329 0.385081 2.41293
H -0.977336 -0.876816 2.74821
H -0.35444 -0.995179 1.2152
H -1.28475 0.313103 1.63383
H 1.36803 -0.355183 2.76328
H 0.358614 1.06438 3.21762
H 1.03447 0.935978 1.55407
