16
Coordinates from XML
N 0.140511 0.207927 -1.85953
C -0.161054 -0.238132 -3.23338
H 0.408219 1.20071 -1.83812
H 0.916483 -0.330656 -1.4525
H -0.673426 0.0934659 -1.24121
H 0.736939 -0.0920248 -3.83658
H -0.988204 0.368245 -3.6074
H -0.436729 -1.2935 -3.18888
N 0.619056 0.242088 2.67704
C -0.708847 -0.277238 2.2971
H 0.830155 1.12318 2.19036
H 1.3642 -0.427047 2.44275
H 0.674545 0.425702 3.68755
H -0.703628 -0.450935 1.21942
H -1.45201 0.474407 2.57003
H -0.872472 -1.20778 2.84399
