16
Coordinates from XML
N 0.0388121 -0.682445 -2.29266
C -0.0444765 0.781447 -2.45838
H 1.01619 -1.00074 -2.25867
H -0.419938 -1.17437 -3.07076
H -0.416482 -0.98756 -1.42229
H 0.45357 1.04039 -3.39459
H 0.457412 1.24315 -1.60591
H -1.10102 1.05469 -2.48707
N 0.173002 -0.210079 1.73821
C -0.198092 0.240746 3.09336
H 0.821177 0.449545 1.28821
H -0.653481 -0.294115 1.13179
H 0.633969 -1.12924 1.76217
H -0.680014 1.2158 3.00061
H 0.716991 0.309736 3.68465
H -0.883173 -0.497318 3.5149
