16
Coordinates from XML
N -2.9848219052 0.051022050733 -1.339633357989
C -1.7148219052 -0.121977949267 -0.556633357989
H -3.3148219052 -0.861977949267 -1.689633357989
H -2.8228219052 0.677022050733 -2.144633357989
H -3.7188219052 0.463022050733 -0.740633357989
H -0.9548219052 -0.551977949267 -1.213633357989
H -1.8768219052 -0.783977949267 0.298366642011
H -1.3838219052 0.858022050733 -0.203633357989
N 2.048009135333 -0.389623228653 1.427455777468
C 2.777009135333 0.503376771347 0.460455777468
H 1.057009135333 -0.491623228653 1.150455777468
H 2.078009135333 0.004376771347 2.382455777468
H 2.476009135333 -1.329623228653 1.450455777468
H 2.288009135333 1.482376771347 0.451455777468
H 2.711009135333 0.063376771347 -0.538544222532
H 3.831009135333 0.634376771347 0.722455777468
