16
Coordinates from XML
N -2.99073 0.0504337 -1.34135
C -1.72073 -0.122566 -0.558348
H -3.32073 -0.862566 -1.69135
H -2.82873 0.676434 -2.14635
H -3.72473 0.462434 -0.742348
H -0.960726 -0.552566 -1.21535
H -1.88273 -0.784566 0.296652
H -1.38973 0.857434 -0.205348
N 2.05391 -0.389035 1.42917
C 2.78291 0.503965 0.462171
H 1.06291 -0.491035 1.15217
H 2.08391 0.00496514 2.38417
H 2.48191 -1.32903 1.45217
H 2.29391 1.48297 0.453171
H 2.71691 0.0639651 -0.536829
H 3.83691 0.634965 0.724171
