16
Coordinates from XML
N -3.002535097143 0.049256940469 -1.344777900467
C -1.732535097143 -0.123743059531 -0.561777900467
H -3.332535097143 -0.863743059531 -1.694777900467
H -2.840535097143 0.675256940469 -2.149777900467
H -3.736535097143 0.461256940469 -0.745777900467
H -0.972535097143 -0.553743059531 -1.218777900467
H -1.894535097143 -0.785743059531 0.293222099533
H -1.401535097143 0.856256940469 -0.208777900467
N 2.065722327276 -0.387858118389 1.432600319945
C 2.794722327276 0.505141881611 0.465600319945
H 1.074722327276 -0.489858118389 1.155600319945
H 2.095722327276 0.006141881611 2.387600319945
H 2.493722327276 -1.327858118389 1.455600319945
H 2.305722327276 1.484141881611 0.456600319945
H 2.728722327276 0.065141881611 -0.533399680055
H 3.848722327276 0.636141881611 0.727600319945
