16
Coordinates from XML
N -3.008439494457 0.048668570381 -1.346492747959
C -1.738439494457 -0.124331429619 -0.563492747959
H -3.338439494457 -0.864331429619 -1.696492747959
H -2.846439494457 0.674668570381 -2.151492747959
H -3.742439494457 0.460668570381 -0.747492747959
H -0.978439494457 -0.554331429619 -1.220492747959
H -1.900439494457 -0.786331429619 0.291507252041
H -1.407439494457 0.855668570381 -0.210492747959
N 2.07162672459 -0.387269748301 1.434315167438
C 2.80062672459 0.505730251699 0.467315167438
H 1.08062672459 -0.489269748301 1.157315167438
H 2.10162672459 0.006730251699 2.389315167438
H 2.49962672459 -1.327269748301 1.457315167438
H 2.31162672459 1.484730251699 0.458315167438
H 2.73462672459 0.065730251699 -0.531684832562
H 3.85462672459 0.636730251699 0.729315167438
