16
Coordinates from XML
N -3.02025 0.0474918 -1.34992
C -1.75025 -0.125508 -0.566922
H -3.35025 -0.865508 -1.69992
H -2.85825 0.673492 -2.15492
H -3.75425 0.459492 -0.750922
H -0.990248 -0.555508 -1.22392
H -1.91225 -0.787508 0.288078
H -1.41925 0.854492 -0.213922
N 2.08344 -0.386093 1.43774
C 2.81244 0.506907 0.470745
H 1.09244 -0.488093 1.16074
H 2.11344 0.00790699 2.39274
H 2.51144 -1.32609 1.46074
H 2.32344 1.48591 0.461745
H 2.74644 0.066907 -0.528255
H 3.86644 0.637907 0.732745
