16
Coordinates from XML
N -3.020248289085 0.047491830206 -1.349922442944
C -1.750248289085 -0.125508169794 -0.566922442944
H -3.350248289085 -0.865508169794 -1.699922442944
H -2.858248289085 0.673491830206 -2.154922442944
H -3.754248289085 0.459491830206 -0.750922442944
H -0.990248289085 -0.555508169794 -1.223922442944
H -1.912248289085 -0.787508169794 0.288077557056
H -1.419248289085 0.854491830206 -0.213922442944
N 2.083435519218 -0.386093008126 1.437744862422
C 2.812435519218 0.506906991874 0.470744862422
H 1.092435519218 -0.488093008126 1.160744862422
H 2.113435519218 0.007906991874 2.392744862422
H 2.511435519218 -1.326093008126 1.460744862422
H 2.323435519218 1.485906991874 0.461744862422
H 2.746435519218 0.066906991874 -0.528255137578
H 3.866435519218 0.637906991874 0.732744862422
