16
Coordinates from XML
N -3.03796 0.0457267 -1.35507
C -1.76796 -0.127273 -0.572067
H -3.36796 -0.867273 -1.70507
H -2.87596 0.671727 -2.16007
H -3.77196 0.457727 -0.756067
H -1.00796 -0.557273 -1.22907
H -1.92996 -0.789273 0.282933
H -1.43696 0.852727 -0.219067
N 2.10115 -0.384328 1.44289
C 2.83015 0.508672 0.475889
H 1.11015 -0.486328 1.16589
H 2.13115 0.0096721 2.39789
H 2.52915 -1.32433 1.46589
H 2.34115 1.48767 0.466889
H 2.76415 0.0686721 -0.523111
H 3.88415 0.639672 0.737889
