16
Coordinates from XML
N -3.04387 0.0451383 -1.35678
C -1.77387 -0.127862 -0.573782
H -3.37387 -0.867862 -1.70678
H -2.88187 0.671138 -2.16178
H -3.77787 0.457138 -0.757782
H -1.01387 -0.557862 -1.23078
H -1.93587 -0.789862 0.281218
H -1.44287 0.852138 -0.220782
N 2.10705 -0.38374 1.4446
C 2.83605 0.50926 0.477604
H 1.11605 -0.48574 1.1676
H 2.13705 0.0102605 2.3996
H 2.53505 -1.32374 1.4676
H 2.34705 1.48826 0.468604
H 2.77005 0.0692605 -0.521396
H 3.89005 0.64026 0.739604
