16
Coordinates from XML
N -3.061579070285 0.04337323959 -1.36192637539
C -1.791579070285 -0.12962676041 -0.57892637539
H -3.391579070285 -0.86962676041 -1.71192637539
H -2.899579070285 0.66937323959 -2.16692637539
H -3.795579070285 0.45537323959 -0.76292637539
H -1.031579070285 -0.55962676041 -1.23592637539
H -1.953579070285 -0.79162676041 0.27607362461
H -1.460579070285 0.85037323959 -0.22592637539
N 2.124766300418 -0.38197441751 1.449748794869
C 2.853766300418 0.51102558249 0.482748794869
H 1.133766300418 -0.48397441751 1.172748794869
H 2.154766300418 0.01202558249 2.404748794869
H 2.552766300418 -1.32197441751 1.472748794869
H 2.364766300418 1.49002558249 0.473748794869
H 2.787766300418 0.07102558249 -0.516251205131
H 3.907766300418 0.64202558249 0.744748794869
