16
Coordinates from XML
N -3.07339 0.0421965 -1.36536
C -1.80339 -0.130804 -0.582356
H -3.40339 -0.870804 -1.71536
H -2.91139 0.668196 -2.17036
H -3.80739 0.454196 -0.766356
H -1.04339 -0.560804 -1.23936
H -1.96539 -0.792804 0.272644
H -1.47239 0.849196 -0.229356
N 2.13658 -0.380798 1.45318
C 2.86558 0.512202 0.486178
H 1.14558 -0.482798 1.17618
H 2.16658 0.0132023 2.40818
H 2.56458 -1.3208 1.47618
H 2.37658 1.4912 0.477178
H 2.79958 0.0722023 -0.512822
H 3.91958 0.643202 0.748178
