16
Coordinates from XML
N -3.085196659543 0.041019759239 -1.36878576536
C -1.815196659543 -0.131980240761 -0.58578576536
H -3.415196659543 -0.871980240761 -1.71878576536
H -2.923196659543 0.667019759239 -2.17378576536
H -3.819196659543 0.453019759239 -0.76978576536
H -1.055196659543 -0.561980240761 -1.24278576536
H -1.977196659543 -0.793980240761 0.26921423464
H -1.484196659543 0.848019759239 -0.23278576536
N 2.148383889675 -0.379620937159 1.456608184839
C 2.877383889675 0.513379062841 0.489608184839
H 1.157383889675 -0.481620937159 1.179608184839
H 2.178383889675 0.014379062841 2.411608184839
H 2.576383889675 -1.319620937159 1.479608184839
H 2.388383889675 1.492379062841 0.480608184839
H 2.811383889675 0.073379062841 -0.509391815161
H 3.931383889675 0.644379062841 0.751608184839
