16
Coordinates from XML
N -3.0852 0.0410198 -1.36879
C -1.8152 -0.13198 -0.585786
H -3.4152 -0.87198 -1.71879
H -2.9232 0.66702 -2.17379
H -3.8192 0.45302 -0.769786
H -1.0552 -0.56198 -1.24279
H -1.9772 -0.79398 0.269214
H -1.4842 0.84802 -0.232786
N 2.14838 -0.379621 1.45661
C 2.87738 0.513379 0.489608
H 1.15738 -0.481621 1.17961
H 2.17838 0.0143791 2.41161
H 2.57638 -1.31962 1.47961
H 2.38838 1.49238 0.480608
H 2.81138 0.0733791 -0.509392
H 3.93138 0.644379 0.751608
