16
Coordinates from XML
N -3.10881 0.0386663 -1.37565
C -1.83881 -0.134334 -0.592645
H -3.43881 -0.874334 -1.72565
H -2.94681 0.664666 -2.18065
H -3.84281 0.450666 -0.776645
H -1.07881 -0.564334 -1.24965
H -2.00081 -0.796334 0.262355
H -1.50781 0.845666 -0.239645
N 2.172 -0.377267 1.46347
C 2.901 0.515733 0.496468
H 1.181 -0.479267 1.18647
H 2.202 0.0167325 2.41847
H 2.6 -1.31727 1.48647
H 2.412 1.49473 0.487468
H 2.835 0.0757325 -0.502532
H 3.955 0.646733 0.758468
