16
Coordinates from XML
N -3.11472 0.0380779 -1.37736
C -1.84472 -0.134922 -0.59436
H -3.44472 -0.874922 -1.72736
H -2.95272 0.664078 -2.18236
H -3.84872 0.450078 -0.77836
H -1.08472 -0.564922 -1.25136
H -2.00672 -0.796922 0.26064
H -1.51372 0.845078 -0.24136
N 2.17791 -0.376679 1.46518
C 2.90691 0.516321 0.498182
H 1.18691 -0.478679 1.18818
H 2.20791 0.0173209 2.42018
H 2.60591 -1.31668 1.48818
H 2.41791 1.49532 0.489182
H 2.84091 0.0763209 -0.500818
H 3.96091 0.647321 0.760182
