16
Coordinates from XML
N -3.126527440742 0.036901168623 -1.380789697807
C -1.856527440742 -0.136098831377 -0.597789697807
H -3.456527440742 -0.876098831377 -1.730789697807
H -2.964527440742 0.662901168623 -2.185789697807
H -3.860527440742 0.448901168623 -0.781789697807
H -1.096527440742 -0.566098831377 -1.254789697807
H -2.018527440742 -0.798098831377 0.257210302193
H -1.525527440742 0.843901168623 -0.244789697807
N 2.189714670875 -0.375502346543 1.468612117285
C 2.918714670875 0.517497653457 0.501612117285
H 1.198714670875 -0.477502346543 1.191612117285
H 2.219714670875 0.018497653457 2.423612117285
H 2.617714670875 -1.315502346543 1.491612117285
H 2.429714670875 1.496497653457 0.492612117285
H 2.852714670875 0.077497653457 -0.497387882715
H 3.972714670875 0.648497653457 0.763612117285
