16
Coordinates from XML
N -3.12653 0.0369012 -1.38079
C -1.85653 -0.136099 -0.59779
H -3.45653 -0.876099 -1.73079
H -2.96453 0.662901 -2.18579
H -3.86053 0.448901 -0.78179
H -1.09653 -0.566099 -1.25479
H -2.01853 -0.798099 0.25721
H -1.52553 0.843901 -0.24479
N 2.18971 -0.375502 1.46861
C 2.91871 0.517498 0.501612
H 1.19871 -0.477502 1.19161
H 2.21971 0.0184977 2.42361
H 2.61771 -1.3155 1.49161
H 2.42971 1.4965 0.492612
H 2.85271 0.0774977 -0.497388
H 3.97271 0.648498 0.763612
