16
Coordinates from XML
N -3.144240632685 0.03513605836 -1.385934240284
C -1.874240632685 -0.13786394164 -0.602934240284
H -3.474240632685 -0.87786394164 -1.735934240284
H -2.982240632685 0.66113605836 -2.190934240284
H -3.878240632685 0.44713605836 -0.786934240284
H -1.114240632685 -0.56786394164 -1.259934240284
H -2.036240632685 -0.79986394164 0.252065759716
H -1.543240632685 0.84213605836 -0.249934240284
N 2.207427862818 -0.37373723628 1.473756659762
C 2.936427862818 0.51926276372 0.506756659762
H 1.216427862818 -0.47573723628 1.196756659762
H 2.237427862818 0.02026276372 2.428756659762
H 2.635427862818 -1.31373723628 1.496756659762
H 2.447427862818 1.49826276372 0.497756659762
H 2.870427862818 0.07926276372 -0.492243340238
H 3.990427862818 0.65026276372 0.768756659762
