16
Coordinates from XML
N -3.14424 0.0351361 -1.38593
C -1.87424 -0.137864 -0.602934
H -3.47424 -0.877864 -1.73593
H -2.98224 0.661136 -2.19093
H -3.87824 0.447136 -0.786934
H -1.11424 -0.567864 -1.25993
H -2.03624 -0.799864 0.252066
H -1.54324 0.842136 -0.249934
N 2.20743 -0.373737 1.47376
C 2.93643 0.519263 0.506757
H 1.21643 -0.475737 1.19676
H 2.23743 0.0202628 2.42876
H 2.63543 -1.31374 1.49676
H 2.44743 1.49826 0.497757
H 2.87043 0.0792628 -0.492243
H 3.99043 0.650263 0.768757
