16
Coordinates from XML
N -3.15605 0.0339593 -1.38936
C -1.88605 -0.139041 -0.606364
H -3.48605 -0.879041 -1.73936
H -2.99405 0.659959 -2.19436
H -3.89005 0.445959 -0.790364
H -1.12605 -0.569041 -1.26336
H -2.04805 -0.801041 0.248636
H -1.55505 0.840959 -0.253364
N 2.21924 -0.37256 1.47719
C 2.94824 0.52044 0.510186
H 1.22824 -0.47456 1.20019
H 2.24924 0.0214395 2.43219
H 2.64724 -1.31256 1.50019
H 2.45924 1.49944 0.501186
H 2.88224 0.0804395 -0.488814
H 4.00224 0.65144 0.772186
