16
Coordinates from XML
N -3.16786 0.0327826 -1.39279
C -1.89786 -0.140217 -0.609794
H -3.49786 -0.880217 -1.74279
H -3.00586 0.658783 -2.19779
H -3.90186 0.444783 -0.793794
H -1.13786 -0.570217 -1.26679
H -2.05986 -0.802217 0.245206
H -1.56686 0.839783 -0.256794
N 2.23105 -0.371384 1.48062
C 2.96005 0.521616 0.513616
H 1.24005 -0.473384 1.20362
H 2.26105 0.0226162 2.43562
H 2.65905 -1.31138 1.50362
H 2.47105 1.50062 0.504616
H 2.89405 0.0816162 -0.485384
H 4.01405 0.652616 0.775616
