16
Coordinates from XML
N -3.17967 0.0316058 -1.39622
C -1.90967 -0.141394 -0.613223
H -3.50967 -0.881394 -1.74622
H -3.01767 0.657606 -2.20122
H -3.91367 0.443606 -0.797223
H -1.14967 -0.571394 -1.27022
H -2.07167 -0.803394 0.241777
H -1.57867 0.838606 -0.260223
N 2.24285 -0.370207 1.48405
C 2.97185 0.522793 0.517046
H 1.25185 -0.472207 1.20705
H 2.27285 0.023793 2.43905
H 2.67085 -1.31021 1.50705
H 2.48285 1.50179 0.508046
H 2.90585 0.082793 -0.481954
H 4.02585 0.653793 0.779046
