16
Coordinates from XML
N -2.95202 0.0542912 -1.33011
C -1.68202 -0.118709 -0.547105
H -3.28202 -0.858709 -1.68011
H -2.79002 0.680291 -2.13511
H -3.68602 0.466291 -0.731105
H -0.922015 -0.548709 -1.20411
H -1.84402 -0.780709 0.307895
H -1.35102 0.861291 -0.194105
N 2.0152 -0.392892 1.41793
C 2.7442 0.500108 0.450928
H 1.0242 -0.494892 1.14093
H 2.0452 0.00110762 2.37293
H 2.4432 -1.33289 1.44093
H 2.2552 1.47911 0.441928
H 2.6782 0.0601076 -0.548072
H 3.7982 0.631108 0.712928
