16
Coordinates from XML
N -2.957446972197 0.053749948413 -1.331682701434
C -1.687446972197 -0.119250051587 -0.548682701434
H -3.287446972197 -0.859250051587 -1.681682701434
H -2.795446972197 0.679749948413 -2.136682701434
H -3.691446972197 0.465749948413 -0.732682701434
H -0.927446972197 -0.549250051587 -1.205682701434
H -1.849446972197 -0.781250051587 0.306317298566
H -1.356446972197 0.860749948413 -0.195682701434
N 2.02063420233 -0.392351126333 1.419505120913
C 2.74963420233 0.500648873667 0.452505120913
H 1.02963420233 -0.494351126333 1.142505120913
H 2.05063420233 0.001648873667 2.374505120913
H 2.44863420233 -1.332351126333 1.442505120913
H 2.26063420233 1.479648873667 0.443505120913
H 2.68363420233 0.060648873667 -0.546494879087
H 3.80363420233 0.631648873667 0.714505120913
