16
Coordinates from XML
N -2.962878506523 0.053208698874 -1.333260212655
C -1.692878506523 -0.119791301126 -0.550260212655
H -3.292878506523 -0.859791301126 -1.683260212655
H -2.800878506523 0.679208698874 -2.138260212655
H -3.696878506523 0.465208698874 -0.734260212655
H -0.932878506523 -0.549791301126 -1.207260212655
H -1.854878506523 -0.781791301126 0.304739787345
H -1.361878506523 0.860208698874 -0.197260212655
N 2.026065736656 -0.391809876794 1.421082632134
C 2.755065736656 0.501190123206 0.454082632134
H 1.035065736656 -0.493809876794 1.144082632134
H 2.056065736656 0.002190123206 2.376082632134
H 2.454065736656 -1.331809876794 1.444082632134
H 2.266065736656 1.480190123206 0.445082632134
H 2.689065736656 0.061190123206 -0.544917367866
H 3.809065736656 0.632190123206 0.716082632134
