16
Coordinates from XML
N -2.968310040849 0.052667449334 -1.334837723877
C -1.698310040849 -0.120332550666 -0.551837723877
H -3.298310040849 -0.860332550666 -1.684837723877
H -2.806310040849 0.678667449334 -2.139837723877
H -3.702310040849 0.464667449334 -0.735837723877
H -0.938310040849 -0.550332550666 -1.208837723877
H -1.860310040849 -0.782332550666 0.303162276123
H -1.367310040849 0.859667449334 -0.198837723877
N 2.031497270982 -0.391268627254 1.422660143355
C 2.760497270982 0.501731372746 0.455660143355
H 1.040497270982 -0.493268627254 1.145660143355
H 2.061497270982 0.002731372746 2.377660143355
H 2.459497270982 -1.331268627254 1.445660143355
H 2.271497270982 1.480731372746 0.446660143355
H 2.694497270982 0.061731372746 -0.543339856645
H 3.814497270982 0.632731372746 0.717660143355
