16
Coordinates from XML
N -2.979173109501 0.051584950254 -1.337992746319
C -1.709173109501 -0.121415049746 -0.554992746319
H -3.309173109501 -0.861415049746 -1.687992746319
H -2.817173109501 0.677584950254 -2.142992746319
H -3.713173109501 0.463584950254 -0.738992746319
H -0.949173109501 -0.551415049746 -1.211992746319
H -1.871173109501 -0.783415049746 0.300007253681
H -1.378173109501 0.858584950254 -0.201992746319
N 2.042360339634 -0.390186128174 1.425815165798
C 2.771360339634 0.502813871826 0.458815165798
H 1.051360339634 -0.492186128174 1.148815165798
H 2.072360339634 0.003813871826 2.380815165798
H 2.470360339634 -1.330186128174 1.448815165798
H 2.282360339634 1.481813871826 0.449815165798
H 2.705360339634 0.062813871826 -0.540184834202
H 3.825360339634 0.633813871826 0.720815165798
