16
Coordinates from XML
N -2.97917 0.051585 -1.33799
C -1.70917 -0.121415 -0.554993
H -3.30917 -0.861415 -1.68799
H -2.81717 0.677585 -2.14299
H -3.71317 0.463585 -0.738993
H -0.949173 -0.551415 -1.21199
H -1.87117 -0.783415 0.300007
H -1.37817 0.858585 -0.201993
N 2.04236 -0.390186 1.42582
C 2.77136 0.502814 0.458815
H 1.05136 -0.492186 1.14882
H 2.07236 0.00381387 2.38082
H 2.47036 -1.33019 1.44882
H 2.28236 1.48181 0.449815
H 2.70536 0.0628139 -0.540185
H 3.82536 0.633814 0.720815
