16
Coordinates from XML
N -2.99547 0.0499612 -1.34273
C -1.72547 -0.123039 -0.559725
H -3.32547 -0.863039 -1.69273
H -2.83347 0.675961 -2.14773
H -3.72947 0.461961 -0.743725
H -0.965468 -0.553039 -1.21673
H -1.88747 -0.785039 0.295275
H -1.39447 0.856961 -0.206725
N 2.05865 -0.388562 1.43055
C 2.78765 0.504438 0.463548
H 1.06765 -0.490562 1.15355
H 2.08865 0.00543762 2.38555
H 2.48665 -1.32856 1.45355
H 2.29865 1.48344 0.454548
H 2.72165 0.0644376 -0.535452
H 3.84165 0.635438 0.725548
