16
Coordinates from XML
N -2.995467712479 0.049961201635 -1.342725279983
C -1.725467712479 -0.123038798365 -0.559725279983
H -3.325467712479 -0.863038798365 -1.692725279983
H -2.833467712479 0.675961201635 -2.147725279983
H -3.729467712479 0.461961201635 -0.743725279983
H -0.965467712479 -0.553038798365 -1.216725279983
H -1.887467712479 -0.785038798365 0.295274720017
H -1.394467712479 0.856961201635 -0.206725279983
N 2.058654942611 -0.388562379555 1.430547699462
C 2.787654942611 0.504437620445 0.463547699462
H 1.067654942611 -0.490562379555 1.153547699462
H 2.088654942611 0.005437620445 2.385547699462
H 2.486654942611 -1.328562379555 1.453547699462
H 2.298654942611 1.483437620445 0.454547699462
H 2.721654942611 0.064437620445 -0.535452300538
H 3.841654942611 0.635437620445 0.725547699462
