16
Coordinates from XML
N -3.000899246804 0.049419952095 -1.344302791205
C -1.730899246804 -0.123580047905 -0.561302791205
H -3.330899246804 -0.863580047905 -1.694302791205
H -2.838899246804 0.675419952095 -2.149302791205
H -3.734899246804 0.461419952095 -0.745302791205
H -0.970899246804 -0.553580047905 -1.218302791205
H -1.892899246804 -0.785580047905 0.293697208795
H -1.399899246804 0.856419952095 -0.208302791205
N 2.064086476937 -0.388021130015 1.432125210683
C 2.793086476937 0.504978869985 0.465125210683
H 1.073086476937 -0.490021130015 1.155125210683
H 2.094086476937 0.005978869985 2.387125210683
H 2.492086476937 -1.328021130015 1.455125210683
H 2.304086476937 1.483978869985 0.456125210683
H 2.727086476937 0.064978869985 -0.533874789317
H 3.847086476937 0.635978869985 0.727125210683
