16
Coordinates from XML
N -3.0009 0.04942 -1.3443
C -1.7309 -0.12358 -0.561303
H -3.3309 -0.86358 -1.6943
H -2.8389 0.67542 -2.1493
H -3.7349 0.46142 -0.745303
H -0.970899 -0.55358 -1.2183
H -1.8929 -0.78558 0.293697
H -1.3999 0.85642 -0.208303
N 2.06409 -0.388021 1.43213
C 2.79309 0.504979 0.465125
H 1.07309 -0.490021 1.15513
H 2.09409 0.00597887 2.38713
H 2.49209 -1.32802 1.45513
H 2.30409 1.48398 0.456125
H 2.72709 0.0649789 -0.533875
H 3.84709 0.635979 0.727125
