16
Coordinates from XML
N -3.01176 0.0483375 -1.34746
C -1.74176 -0.124663 -0.564458
H -3.34176 -0.864663 -1.69746
H -2.84976 0.674337 -2.15246
H -3.74576 0.460337 -0.748458
H -0.981762 -0.554663 -1.22146
H -1.90376 -0.786663 0.290542
H -1.41076 0.855337 -0.211458
N 2.07495 -0.386939 1.43528
C 2.80395 0.506061 0.46828
H 1.08395 -0.488939 1.15828
H 2.10495 0.00706137 2.39028
H 2.50295 -1.32694 1.45828
H 2.31495 1.48506 0.45928
H 2.73795 0.0660614 -0.53072
H 3.85795 0.637061 0.73028
