16
Coordinates from XML
N -3.011762315456 0.048337453016 -1.347457813647
C -1.741762315456 -0.124662546984 -0.564457813647
H -3.341762315456 -0.864662546984 -1.697457813647
H -2.849762315456 0.674337453016 -2.152457813647
H -3.745762315456 0.460337453016 -0.748457813647
H -0.981762315456 -0.554662546984 -1.221457813647
H -1.903762315456 -0.786662546984 0.290542186353
H -1.410762315456 0.855337453016 -0.211457813647
N 2.074949545589 -0.386938630936 1.435280233126
C 2.803949545589 0.506061369064 0.468280233126
H 1.083949545589 -0.488938630936 1.158280233126
H 2.104949545589 0.007061369064 2.390280233126
H 2.502949545589 -1.326938630936 1.458280233126
H 2.314949545589 1.485061369064 0.459280233126
H 2.737949545589 0.066061369064 -0.530719766874
H 3.857949545589 0.637061369064 0.730280233126
