16
Coordinates from XML
N -3.022625384108 0.047254953936 -1.35061283609
C -1.752625384108 -0.125745046064 -0.56761283609
H -3.352625384108 -0.865745046064 -1.70061283609
H -2.860625384108 0.673254953936 -2.15561283609
H -3.756625384108 0.459254953936 -0.75161283609
H -0.992625384108 -0.555745046064 -1.22461283609
H -1.914625384108 -0.787745046064 0.28738716391
H -1.421625384108 0.854254953936 -0.21461283609
N 2.085812614241 -0.385856131857 1.438435255569
C 2.814812614241 0.507143868143 0.471435255569
H 1.094812614241 -0.487856131857 1.161435255569
H 2.115812614241 0.008143868143 2.393435255569
H 2.513812614241 -1.325856131857 1.461435255569
H 2.325812614241 1.486143868143 0.462435255569
H 2.748812614241 0.067143868143 -0.527564744431
H 3.868812614241 0.638143868143 0.733435255569
