16
Coordinates from XML
N -3.028056918434 0.046713704397 -1.352190347311
C -1.758056918434 -0.126286295603 -0.569190347311
H -3.358056918434 -0.866286295603 -1.702190347311
H -2.866056918434 0.672713704397 -2.157190347311
H -3.762056918434 0.458713704397 -0.753190347311
H -0.998056918434 -0.556286295603 -1.226190347311
H -1.920056918434 -0.788286295603 0.285809652689
H -1.427056918434 0.853713704397 -0.216190347311
N 2.091244148567 -0.385314882317 1.44001276679
C 2.820244148567 0.507685117683 0.47301276679
H 1.100244148567 -0.487314882317 1.16301276679
H 2.121244148567 0.008685117683 2.39501276679
H 2.519244148567 -1.325314882317 1.46301276679
H 2.331244148567 1.486685117683 0.46401276679
H 2.754244148567 0.067685117683 -0.52598723321
H 3.874244148567 0.638685117683 0.73501276679
