16
Coordinates from XML
N -0.261896 0.243764 -1.49796
C 0.275274 -0.267271 -2.83373
H -1.05414 0.875327 -1.63882
H 0.45974 0.754593 -0.983614
H -0.578398 -0.530961 -0.909545
H 0.598278 0.584982 -3.42261
H -0.520499 -0.800417 -3.34277
H 1.11097 -0.930629 -2.63665
N 0.13524 0.061598 2.82205
C -0.130916 -0.0807877 1.32442
H 1.05933 0.465366 2.99347
H 0.0978217 -0.847509 3.28936
H -0.559934 0.669877 3.26175
H 0.627256 -0.731611 0.901286
H -0.0815875 0.903633 0.871543
H -1.11787 -0.511179 1.19041
