16
Coordinates from XML
N -0.261896437746 0.243764278937 -1.497963963819
C 0.275273643972 -0.267271467621 -2.833732417179
H -1.05413545071 0.875326906626 -1.638818179898
H 0.459740346023 0.754592543615 -0.98361372941
H -0.578398378284 -0.530960642319 -0.909545356063
H 0.598277802966 0.584981840656 -3.422606655371
H -0.520499219909 -0.800416959164 -3.342770005654
H 1.110973104629 -0.930629382702 -2.636653431015
N 0.135239827202 0.061597953665 2.822046282436
C -0.1309160196 -0.080787709975 1.324423506183
H 1.059328098723 0.465366305356 2.993469446429
H 0.097821747151 -0.847509015927 3.289363875131
H -0.55993434896 0.66987671735 3.261748966509
H 0.627255694517 -0.731610927433 0.901286355685
H -0.081587495974 0.903632916424 0.871543213391
H -1.117872092117 -0.511179121432 1.190414615825
