16
Coordinates from XML
N -0.261896 0.243764 -1.86796
C 0.275274 -0.267271 -3.20373
H -1.05414 0.875327 -2.00882
H 0.45974 0.754593 -1.35361
H -0.578398 -0.530961 -1.27955
H 0.598278 0.584982 -3.79261
H -0.520499 -0.800417 -3.71277
H 1.11097 -0.930629 -3.00665
N 0.13524 0.061598 3.19205
C -0.130916 -0.0807877 1.69442
H 1.05933 0.465366 3.36347
H 0.0978217 -0.847509 3.65936
H -0.559934 0.669877 3.63175
H 0.627256 -0.731611 1.27129
H -0.0815875 0.903633 1.24154
H -1.11787 -0.511179 1.56041
