16
Coordinates from XML
N -0.261896 0.243764 -2.13796
C 0.275274 -0.267271 -3.47373
H -1.05414 0.875327 -2.27882
H 0.45974 0.754593 -1.62361
H -0.578398 -0.530961 -1.54955
H 0.598278 0.584982 -4.06261
H -0.520499 -0.800417 -3.98277
H 1.11097 -0.930629 -3.27665
N 0.13524 0.061598 3.46205
C -0.130916 -0.0807877 1.96442
H 1.05933 0.465366 3.63347
H 0.0978217 -0.847509 3.92936
H -0.559934 0.669877 3.90175
H 0.627256 -0.731611 1.54129
H -0.0815875 0.903633 1.51154
H -1.11787 -0.511179 1.83041
