16
Coordinates from XML
N -0.261896 0.243764 -2.27796
C 0.275274 -0.267271 -3.61373
H -1.05414 0.875327 -2.41882
H 0.45974 0.754593 -1.76361
H -0.578398 -0.530961 -1.68955
H 0.598278 0.584982 -4.20261
H -0.520499 -0.800417 -4.12277
H 1.11097 -0.930629 -3.41665
N 0.13524 0.061598 3.60205
C -0.130916 -0.0807877 2.10442
H 1.05933 0.465366 3.77347
H 0.0978217 -0.847509 4.06936
H -0.559934 0.669877 4.04175
H 0.627256 -0.731611 1.68129
H -0.0815875 0.903633 1.65154
H -1.11787 -0.511179 1.97041
