16
Coordinates from XML
N -0.261896437746 0.243764278937 -2.437963963819
C 0.275273643972 -0.267271467621 -3.773732417179
H -1.05413545071 0.875326906626 -2.578818179898
H 0.459740346023 0.754592543615 -1.92361372941
H -0.578398378284 -0.530960642319 -1.849545356063
H 0.598277802966 0.584981840656 -4.362606655371
H -0.520499219909 -0.800416959164 -4.282770005654
H 1.110973104629 -0.930629382702 -3.576653431015
N 0.135239827202 0.061597953665 3.762046282436
C -0.1309160196 -0.080787709975 2.264423506183
H 1.059328098723 0.465366305356 3.933469446429
H 0.097821747151 -0.847509015927 4.229363875131
H -0.55993434896 0.66987671735 4.201748966509
H 0.627255694517 -0.731610927433 1.841286355685
H -0.081587495974 0.903632916424 1.811543213391
H -1.117872092117 -0.511179121432 2.130414615825
