16
Coordinates from XML
N -2.80319 0.0691214 -1.28688
C -1.53319 -0.103879 -0.503881
H -3.13319 -0.843879 -1.63688
H -2.64119 0.695121 -2.09188
H -3.53719 0.481121 -0.687881
H -0.773191 -0.533879 -1.16088
H -1.69519 -0.765879 0.351119
H -1.20219 0.876121 -0.150881
N 1.86638 -0.407723 1.3747
C 2.59538 0.485277 0.407704
H 0.875379 -0.509723 1.0977
H 1.89638 -0.0137226 2.3297
H 2.29438 -1.34772 1.3977
H 2.10638 1.46428 0.398704
H 2.52938 0.0452774 -0.591296
H 3.64938 0.616277 0.669704
