16
Coordinates from XML
N -2.91244283064 0.058234587457 -1.318611894171
C -1.64244283064 -0.114765412543 -0.535611894171
H -3.24244283064 -0.854765412543 -1.668611894171
H -2.75044283064 0.684234587457 -2.123611894171
H -3.64644283064 0.470234587457 -0.719611894171
H -0.88244283064 -0.544765412543 -1.192611894171
H -1.80444283064 -0.776765412543 0.319388105829
H -1.31144283064 0.865234587457 -0.182611894171
N 1.975630060773 -0.396835765377 1.40643431365
C 2.704630060773 0.496164234623 0.43943431365
H 0.984630060773 -0.498835765377 1.12943431365
H 2.005630060773 -0.002835765377 2.36143431365
H 2.403630060773 -1.336835765377 1.42943431365
H 2.215630060773 1.475164234623 0.43043431365
H 2.638630060773 0.056164234623 -0.55956568635
H 3.758630060773 0.627164234623 0.70143431365
