16
Coordinates from XML
N -2.967068547289 0.052791163514 -1.334477149883
C -1.697068547289 -0.120208836486 -0.551477149883
H -3.297068547289 -0.860208836486 -1.684477149883
H -2.805068547289 0.678791163514 -2.139477149883
H -3.701068547289 0.464791163514 -0.735477149883
H -0.937068547289 -0.550208836486 -1.208477149883
H -1.859068547289 -0.782208836486 0.303522850117
H -1.366068547289 0.859791163514 -0.198477149883
N 2.030255777422 -0.391392341434 1.422299569362
C 2.759255777422 0.501607658566 0.455299569362
H 1.039255777422 -0.493392341434 1.145299569362
H 2.060255777422 0.002607658566 2.377299569362
H 2.458255777422 -1.331392341434 1.445299569362
H 2.270255777422 1.480607658566 0.446299569362
H 2.693255777422 0.061607658566 -0.543700430638
H 3.813255777422 0.632607658566 0.717299569362
