16
Coordinates from XML
N -2.994381405613 0.050069451543 -1.342409777739
C -1.724381405613 -0.122930548457 -0.559409777739
H -3.324381405613 -0.862930548457 -1.692409777739
H -2.832381405613 0.676069451543 -2.147409777739
H -3.728381405613 0.462069451543 -0.743409777739
H -0.964381405613 -0.552930548457 -1.216409777739
H -1.886381405613 -0.784930548457 0.295590222261
H -1.393381405613 0.857069451543 -0.206409777739
N 2.057568635746 -0.388670629463 1.430232197218
C 2.786568635746 0.504329370537 0.463232197218
H 1.066568635746 -0.490670629463 1.153232197218
H 2.087568635746 0.005329370537 2.385232197218
H 2.485568635746 -1.328670629463 1.453232197218
H 2.297568635746 1.483329370537 0.454232197218
H 2.720568635746 0.064329370537 -0.535767802782
H 3.840568635746 0.635329370537 0.725232197218
