16
Coordinates from XML
N -2.99438 0.0500695 -1.34241
C -1.72438 -0.122931 -0.55941
H -3.32438 -0.862931 -1.69241
H -2.83238 0.676069 -2.14741
H -3.72838 0.462069 -0.74341
H -0.964381 -0.552931 -1.21641
H -1.88638 -0.784931 0.29559
H -1.39338 0.857069 -0.20641
N 2.05757 -0.388671 1.43023
C 2.78657 0.504329 0.463232
H 1.06657 -0.490671 1.15323
H 2.08757 0.00532937 2.38523
H 2.48557 -1.32867 1.45323
H 2.29757 1.48333 0.454232
H 2.72057 0.0643294 -0.535768
H 3.84057 0.635329 0.725232
