16
Coordinates from XML
N -3.158258555561 0.033739179716 -1.390005544874
C -1.888258555561 -0.139260820284 -0.607005544874
H -3.488258555561 -0.879260820284 -1.740005544874
H -2.996258555561 0.659739179716 -2.195005544874
H -3.892258555561 0.445739179716 -0.791005544874
H -1.128258555561 -0.569260820284 -1.264005544874
H -2.050258555561 -0.801260820284 0.247994455126
H -1.557258555561 0.840739179716 -0.254005544874
N 2.221445785694 -0.372340357636 1.477827964353
C 2.950445785694 0.520659642364 0.510827964353
H 1.230445785694 -0.474340357636 1.200827964353
H 2.251445785694 0.021659642364 2.432827964353
H 2.649445785694 -1.312340357636 1.500827964353
H 2.461445785694 1.499659642364 0.501827964353
H 2.884445785694 0.080659642364 -0.488172035647
H 4.004445785694 0.651659642364 0.772827964353
