16
Coordinates from XML
N -3.15826 0.0337392 -1.39001
C -1.88826 -0.139261 -0.607006
H -3.48826 -0.879261 -1.74001
H -2.99626 0.659739 -2.19501
H -3.89226 0.445739 -0.791006
H -1.12826 -0.569261 -1.26401
H -2.05026 -0.801261 0.247994
H -1.55726 0.840739 -0.254006
N 2.22145 -0.37234 1.47783
C 2.95045 0.52066 0.510828
H 1.23045 -0.47434 1.20083
H 2.25145 0.0216596 2.43283
H 2.64945 -1.31234 1.50083
H 2.46145 1.49966 0.501828
H 2.88445 0.0806596 -0.488172
H 4.00445 0.65166 0.772828
