6
Coordinates from XML
O 0.059547820224 -0.041394712031 -1.333810227778
H -0.641396011197 -0.57211461729 -1.723855990933
H 0.081658249345 0.766124231786 -1.85586947183
O -0.038388019311 0.076270441628 1.34653353404
H 0.299324266362 0.112953423482 2.24638148839
H -0.075407900241 -0.860466175273 1.131415870951
