6
Coordinates from XML
O 0.011805747846 0.017606114616 -1.814121960997
H -0.472829160639 0.518002084863 -1.150906725618
H 0.375988633591 -0.736726040785 -1.341390118343
O -0.011202276349 0.002179063182 1.815511616836
H -0.643850320625 -0.37749817888 1.198483891418
H 0.731113317091 0.282217005459 1.271758105931
