6
Coordinates from XML
O 0.09597369275 0.029716137775 -1.850950720801
H -0.513697068068 0.493173365088 -1.269031025436
H -0.212205350249 -0.881348001565 -1.861409280185
O -0.106661478821 0.008508395545 1.835226561507
H 0.679162327574 0.135232691183 2.37517421471
H 0.216363011587 -0.353709137269 1.004819909608
