6
Coordinates from XML
O -0.022982750945 0.033109727981 -1.445960785867
H -0.284652646351 -0.681810792719 -2.033786512525
H 0.766294916584 0.409744768158 -1.846346075371
O -0.052691504998 -0.031297149983 1.45807364022
H -0.18186381214 0.313459065844 2.346656352587
H 0.901226898989 -0.070159969468 1.341236446671
