6
Coordinates from XML
O 0.091108205674 -0.033777599173 -1.552020415287
H -0.593449349151 -0.702960134153 -1.645279511404
H -0.368622630311 0.807148647354 -1.633335705035
O -0.031875746288 0.075991267006 1.601526474383
H 0.677829999848 -0.572358280093 1.568629838112
H -0.655820134637 -0.201791775224 0.924288294939
