6
Coordinates from XML
O 0.003921011392 -0.073456101762 -1.472701633509
H 0.768784087889 0.509047034356 -1.500917597498
H -0.54162292506 0.193993104179 -2.218338479193
O -0.069630865691 0.044159998059 1.549150399716
H 0.40674213702 -0.788405123061 1.620042228458
H 0.408959772175 0.550315409866 0.885916451214
