6
Coordinates from XML
O 0.068646652132 -0.000177259344 -1.457946303827
H -0.389433051953 -0.706864618233 -1.922572531552
H -0.102107875545 0.791685424048 -1.976519299584
O -0.083324378604 -0.02102041648 1.47383263645
H 0.098509650933 -0.349767062206 2.359261119517
H 0.625977447004 0.601368754442 1.287703084505
