6
Coordinates from XML
O -1.732794987347 -0.042129853986 0.00514155652
H -2.052794987347 0.860870146014 -0.01585844348
H -0.772794987347 0.055870146014 0.00014155652
O 1.655126065285 0.037317514435 -0.004805811901
H 2.031126065285 -0.401682485565 0.761194188099
H 2.027126065285 -0.438682485565 -0.750805811901
