6
Coordinates from XML
O -1.613267749974 -0.047428858658 0.361692822531
H -0.682267749974 -0.098428858658 0.083692822531
H -2.051267749974 -0.741428858658 -0.146307177469
O 1.543768613662 0.045862050432 -0.345688995651
H 1.777768613662 0.930862050432 -0.655688995651
H 2.058768613662 -0.066137949568 0.464311004349
