6
Coordinates from XML
O -1.508922295429 -0.040665222295 0.341565549804
H -0.577922295429 -0.091665222295 0.063565549804
H -1.946922295429 -0.734665222295 -0.166434450196
O 1.439423159117 0.039098414069 -0.325561722924
H 1.673423159117 0.924098414069 -0.635561722924
H 1.954423159117 -0.072901585931 0.484438277076
