6
Coordinates from XML
O -1.535187726337 -0.043639843245 0.004738892718
H -1.855187726337 0.859360156755 -0.016261107282
H -0.575187726337 0.054360156755 -0.000261107282
O 1.457518804275 0.038827503694 -0.004403148098
H 1.833518804275 -0.400172496306 0.761596851902
H 1.829518804275 -0.437172496306 -0.750403148098
