6
Coordinates from XML
O -1.90891320452 -0.066592495022 0.418720095258
H -0.97791320452 -0.117592495022 0.140720095258
H -2.34691320452 -0.760592495022 -0.089279904742
O 1.839414068208 0.065025686796 -0.402716268378
H 2.073414068208 0.950025686796 -0.712716268378
H 2.354414068208 -0.046974313204 0.407283731622
