6
Coordinates from XML
O 2.916415538969 -0.077656169776 -0.00433212769
H 2.596415538969 0.825343830224 -0.02533212769
H 3.876415538969 0.020343830224 -0.00933212769
O -2.994084461031 0.072843830224 0.00466787231
H -2.618084461031 -0.366156169776 0.77066787231
H -2.622084461031 -0.403156169776 -0.74133212769
