6
Coordinates from XML
O -1.456559749002 -0.037140606241 0.331600126209
H -0.525559749002 -0.088140606241 0.053600126209
H -1.894559749002 -0.731140606241 -0.176399873791
O 1.387010250998 0.035579393759 -0.315629873791
H 1.621710250998 0.920579393759 -0.625129873791
H 1.902210250998 -0.076520606241 0.494470126209
