15
Coordinates from XML
N -0.000149245608 0.188265219799 -2.280389729382
C 7.9514506e-05 -0.215663804391 -3.699622969933
H -0.920233344214 0.546820615873 -1.992951006453
H 0.690374369366 0.929259664319 -2.10154795475
H 0.229355946111 -0.603560486521 -1.665362479754
H -0.248888264631 0.663375611444 -4.297026753282
H -0.74921399494 -0.999819809892 -3.823798675038
H 0.998535970443 -0.584878496512 -3.941570891437
C -0.581945901346 -0.90812812501 2.57441886831
C 0.051213228123 0.069989692353 1.523401364089
O 1.318754708553 0.290362800716 1.63107806334
O -0.778630411553 0.553566168252 0.657104982062
H 0.178702661771 -1.290753327615 3.265865591092
H -1.365195440828 -0.378156085556 3.136677937871
H -1.065132532604 -1.744433050821 2.047855870203
