15
Coordinates from XML
N -0.099956400813 0.550584976917 -3.202863054605
C 0.114408643793 -0.630165607815 -4.061499988534
H -0.839214498925 1.158463018685 -3.579319547062
H 0.755291577822 1.116369385332 -3.123371493825
H -0.379176832255 0.276489945435 -2.251639124932
H 0.406860068098 -0.274616288401 -5.051269343427
H -0.824169554163 -1.185951561507 -4.105476686917
H 0.906063796622 -1.231633614354 -3.61062091815
C -0.183123879962 1.348893849438 1.4431020656
C 0.016509106785 -0.107629385977 1.99167245976
O 0.378077696418 -1.002377173526 1.134051019538
O -0.208299988074 -0.250874259349 3.257333501662
H 0.038552158802 1.400393350149 0.370118194356
H -1.220740245153 1.665814228036 1.625856593104
H 0.472476776428 2.038411333183 1.995277091738
