15
Coordinates from XML
N -0.343133682562 0.577251190484 -3.519052256139
C 0.392895026621 -0.661018972678 -3.199160958537
H -0.988594061194 0.835925538851 -2.761288294794
H -0.900084900919 0.471074340865 -4.377196665301
H 0.298557409839 1.368183101888 -3.662503827953
H -0.339589444594 -1.458201544634 -3.059329000826
H 0.960994310163 -0.484834339755 -2.283746741277
H 1.05707976653 -0.880666263226 -4.037246442856
C 0.367712416372 -0.878062474702 0.729709189272
C -0.023619032943 0.067357394414 1.919366160802
O 0.752000807318 0.047102056801 2.951269047586
O -1.094120082137 0.768508778002 1.731296129074
H 1.290164676078 -1.428968073886 0.950325829705
H -0.45430251909 -1.585224150967 0.54343177651
H 0.497880758114 -0.278588495985 -0.1834342782
