15
Coordinates from XML
N -0.519376801004 0.123735655444 -3.039089748603
C 0.594441863962 -0.141728006794 -2.108327305439
H -0.535805046394 -0.558831552654 -3.808225535823
H -0.442740601494 1.060024402648 -3.457862102972
H -1.428222106903 0.072368156841 -2.560257116012
H 1.52568072793 -0.072862099677 -2.673692846547
H 0.45643993392 -1.144615820266 -1.699753553353
H 0.557338089415 0.612065928787 -1.319536083001
C -1.3962964162 -0.395943242205 1.517644627495
C 0.110815910059 0.025850004383 1.403865740081
O 0.919466086569 -0.851237423369 0.910284420365
O 0.377858616851 1.219466056526 1.824490286064
H -1.552673061961 -1.410108062924 1.130213454559
H -1.707756124894 -0.346526658663 2.571701701915
H -2.017264376959 0.319371419946 0.958298968388
