15
Coordinates from XML
N 0.074727792559 0.064746709023 -4.102561524562
C -0.085391738735 -0.07403185847 -2.642258835082
H 0.942478686371 0.563744592901 -4.338670055061
H -0.70665110313 0.589676660094 -4.517019698376
H 0.110240558669 -0.853499438033 -4.564602601588
H -0.116094246892 0.929101188212 -2.212877912534
H 0.770360958098 -0.636794135313 -2.264440159491
H -1.01916707636 -0.608726151997 -2.458032856153
C 1.097168990317 0.613620798129 1.12573289883
C -0.082068819145 -0.050554832514 1.919780543777
O 0.246558879954 -0.847539544758 2.88084203343
O -1.266293358218 0.277491958601 1.516105377629
H 2.068782202521 0.304221578027 1.529869931474
H 1.025728179611 0.328765979189 0.065431334322
H 1.000074858232 1.708119804069 1.178539111061
