15
Coordinates from XML
N -0.000385814817 -0.580894429642 -2.910678873332
C 0.000426032895 0.665263590666 -3.700913793672
H -0.772310697345 -1.200790770688 -3.1892434836
H -0.105979960516 -0.387479598687 -1.906029387412
H 0.87660829029 -1.103807185184 -3.034625191144
H -0.951128736867 1.171272731709 -3.527464091098
H 0.114964004528 0.394028842709 -4.752138686145
H 0.838095347678 1.276523148891 -3.359672747563
C -0.016816463047 1.44156665521 1.97798428349
C 0.000479198368 -0.113829981854 1.771381031921
O -0.030560562762 -0.837900971775 2.839827435745
O 0.046459218526 -0.501180942701 0.53817335811
H -0.071570752856 1.697680052681 3.043110918247
H 0.892050384117 1.875939917815 1.535529327743
H -0.878238126166 1.869672554319 1.444297204767
