15
Coordinates from XML
N -0.478461387678 -0.086804929698 -2.922091363904
C 0.547691021124 0.099263782968 -3.96601251422
H -1.414536700406 0.161538612707 -3.268250624719
H -0.286944068198 0.500181473037 -2.099505143899
H -0.515632385561 -1.063929356248 -2.603084668119
H 0.537517995674 1.150290363192 -4.260675316786
H 0.289347848398 -0.546831336085 -4.807190802243
H 1.512923235902 -0.179438547194 -3.538899692219
C -0.637684154255 -0.902919013899 0.905117173634
C 0.055496227772 0.069626814398 1.922908071553
O 1.345765189106 0.106891536561 1.897662656892
O -0.753666792718 0.731973953028 2.684162017413
H 0.104648902707 -1.418485840339 0.283651701785
H -1.237562633497 -1.640029991384 1.459462446924
H -1.328134568208 -0.330650743765 0.267989954462
