15
Coordinates from XML
N -0.214343307366 0.491310250053 -3.016337268291
C 0.245195697428 -0.562548610523 -3.941316784311
H -0.876958366846 0.118975237266 -2.323483992912
H -0.688793022727 1.251826296046 -3.520710960489
H 0.572666684369 0.906137251785 -2.500146478425
H -0.63133771951 -0.960688174169 -4.455865700208
H 0.73738775662 -1.335885840492 -3.348478260249
H 0.941629694084 -0.106537267099 -4.647579428779
C -1.378413632536 -0.307662664045 2.22219713163
C 0.109229933838 0.025719814783 1.850692778646
O 0.826560286807 0.570128536693 2.775828601799
O 0.453989580511 -0.284394284337 0.643246660834
H -1.596641575454 -0.033470405782 3.261563295753
H -2.051987425537 0.236014236477 1.543080618632
H -1.558610995236 -1.382402838931 2.07184319087
