15
Coordinates from XML
N 0.100203790965 -0.461517665968 -3.012067776007
C -0.114585361648 0.528255147871 -4.085192697396
H -0.103003079134 -1.416076563906 -3.336508862048
H -0.506090446216 -0.274169587468 -2.202630931377
H 1.073376334166 -0.448315290846 -2.679381740153
H -1.159911787152 0.465219416051 -4.393260369601
H 0.553874783615 0.276227288425 -4.910664684963
H 0.11655092265 1.515340305852 -3.6802081434
C 1.037525964953 -0.890605559019 2.40489642421
C -0.083180928754 0.071001615433 1.874264308248
O -0.907567975973 0.535854296997 2.752397534975
O -0.056352097407 0.291454995225 0.600044304868
H 0.964431304794 -1.020218329648 3.491609152134
H 0.944198008795 -1.866328420143 1.905156235826
H 2.023543871781 -0.480149345327 2.141385087462
