15
Coordinates from XML
N -0.299793508506 -0.163298202316 -2.552251316607
C 0.343214999144 0.186771086109 -3.833412216881
H -0.253763412591 -1.175151453887 -2.37400438801
H -1.292030693181 0.107418979609 -2.544662722633
H 0.156478292128 0.311239731134 -1.761967257763
H -0.183547458751 -0.34529998424 -4.627772474604
H 1.388220496851 -0.124220759845 -3.77856158779
H 0.261584562534 1.267578086101 -3.963666892758
C -0.118022336035 -1.24530480338 0.967238157629
C 0.015376018536 0.097282481537 1.768429148234
O 1.209802989775 0.448951706401 2.109739783466
O -1.100643879675 0.708009618671 2.001813052206
H 0.86474667607 -1.699914102331 0.79236018063
H -0.756793599026 -1.941592683849 1.530833691761
H -0.616303219831 -1.047497420027 0.006648630061
