15
Coordinates from XML
N -0.502272193115 -0.355021110413 -3.405972151673
C 0.575040674951 0.406276701776 -2.744757870629
H -1.41509336667 -0.167622230698 -2.970797583263
H -0.334509309808 -1.368184075244 -3.349082506932
H -0.577926105673 -0.109336743977 -4.401881172419
H 0.604100036683 0.102169474078 -1.696778444516
H 0.339954105104 1.468164209857 -2.839045912605
H 1.512514852399 0.165397591471 -3.249627161474
C 0.003264619722 -1.32626933584 1.084025093516
C -0.003388808455 0.106191303885 1.724536599724
O -0.500635275155 1.05679002979 1.006255320055
O 0.498211844237 0.175349604552 2.914734066758
H -0.448996714132 -1.313965545119 0.084827838055
H 1.039702711399 -1.689933760929 1.020544915109
H -0.547970929834 -2.019058375764 1.736961963057
