6
Coordinates from XML
H 0.270523858084 0.987568058559 -3.086399535861
N -1.476187e-06 -5.388934e-06 -3.076874341681
H -1.02124271462 -0.074209477073 -3.083426915746
H 0.381440567185 -0.466368307006 -3.904857304184
H 0.369298803093 -0.446915387496 -2.232814541128
Br -3.9e-11 -1.44e-10 0.703125606344
