6
Coordinates from XML
H 0.332675507282 0.347227996597 -2.335612092316
N -1.815334e-06 -1.894744e-06 -3.239676913872
H -0.460709931215 0.759792122751 -3.748542252583
H 0.794431474002 -0.344404535865 -3.786312770346
H -0.666371823387 -0.76258925329 -3.088152252664
Br -4.8e-11 -5.1e-11 0.740328019245
