6
Coordinates from XML
H 0.403043165177 0.824499868469 -3.596218846395
N -2.199315e-06 -4.499108e-06 -3.141990949839
H 0.731880241259 -0.701003625751 -2.995597071468
H -0.400228919721 0.26935441006 -2.238767533223
H -0.734663924075 -0.392788131205 -3.737424706465
Br -5.9e-11 -1.2e-10 0.718006571622
