180
Coordinates from XML
H 0.232366080736 0.716512207702 -3.656588063728
N -1.267969e-06 -3.909844e-06 -2.962912297571
H 0.860997271365 -0.354745406917 -2.537092106036
H -0.596599746018 0.407967520539 -2.237531185341
H -0.496745985834 -0.769679988423 -3.420505576954
Br -3.4e-11 -1.04e-10 0.67708391732
H 0.298539170279 -0.909349101221 -2.533759780219
N -1.62906e-06 4.962111e-06 -2.897799034463
H -0.376241313203 -0.117513940127 -3.842847106094
H -0.724159239106 0.390617494266 -2.288237064245
H 0.801884020164 0.636176591419 -2.926316636587
Br -4.3e-11 1.32e-10 0.662202951952
H -0.410770718056 -0.836979827485 -3.532868371132
N 2.241482e-06 4.567208e-06 -3.109431600465
H 0.930585212887 -0.223368826217 -2.745285324307
H 0.077850702125 0.736900263445 -3.816165312724
H -0.597696345574 0.323384922332 -2.343448744945
Br 6e-11 1.22e-10 0.710566089011
H -0.588160855777 -0.838001676882 -3.145323710224
N 3.20946e-06 4.572784e-06 -3.12571356274
H 0.517765848658 0.032999796042 -2.242924791463
H 0.660311929715 -0.028086714263 -3.907858986268
H -0.589961522653 0.833025049692 -3.206748678057
Br 8.6e-11 1.22e-10 0.714286330256
H -0.204441809233 0.329822944727 -2.292051313805
N 1.115592e-06 -1.799769e-06 -3.239677151574
H -0.635835511804 -0.766103110673 -3.479016690081
H -0.127112180138 0.76914174862 -3.903611336581
H 0.967373998415 -0.332836572301 -3.283936724242
Br 3e-11 -4.8e-11 0.740328019239
H 0.870933795159 0.403684146677 -3.596151980882
N -4.752487e-06 -2.202812e-06 -3.239670035393
H -0.693780822966 0.742453811906 -3.11350870915
H -0.355469172114 -0.689295852854 -3.908301099877
H 0.178382242564 -0.456811494485 -2.340753164354
Br -1.27e-10 -5.9e-11 0.740328019428
H -0.691542816569 -0.753584674108 -3.27282124391
N 3.773592e-06 4.11214e-06 -3.223391952204
H 0.866787481882 -0.301876054746 -3.677305179466
H -0.364334775984 0.82942649996 -3.700743095363
H 0.189037671191 0.225977084798 -2.242703117157
Br 1.01e-10 1.1e-10 0.73660777808
H 0.095099699448 1.007731039643 -3.019637629235
N -5.18937e-07 -5.498959e-06 -3.174553791175
H 0.888025494834 -0.378037556993 -3.516583631924
H -0.249574186307 -0.458670782519 -2.293709121433
H -0.733543796595 -0.170946284195 -3.868269653576
Br -1.4e-11 -1.47e-10 0.72544705414
H 0.104494426504 1.008275715906 -3.173037020856
N -5.70202e-07 -5.501931e-06 -3.028034326325
H -0.944893625497 -0.199772214766 -2.687809070799
H 0.154568280758 -0.490025259415 -3.913775427092
H 0.685838842015 -0.318401784486 -2.337529946973
Br -1.5e-11 -1.47e-10 0.691964882453
H 0.726178385661 0.718375848111 -3.213865881174
N -3.96259e-06 -3.920013e-06 -3.141993036252
H -0.922298671171 0.43812529181 -3.218792217698
H 0.118116620769 -0.68145614819 -3.897121223052
H 0.078058730626 -0.474990517511 -2.238199841918
Br -1.06e-10 -1.04e-10 0.718006571567
H -0.055772651438 0.980438191904 -2.428556093964
N 3.04339e-07 -5.350028e-06 -2.718721285689
H -0.839563816342 -0.496467374049 -2.407047744993
H 0.067380052037 -0.050610830339 -3.739234511945
H 0.82795218652 -0.433285641188 -2.300018455409
Br 8e-12 -1.43e-10 0.621280297626
H 0.338276789831 -0.596002322271 -3.854018530362
N -1.845899e-06 3.252249e-06 -3.09315000049
H 0.773896690561 0.565256776505 -2.732522271966
H -0.738038653501 0.616545112212 -3.444897062367
H -0.374109175465 -0.58584476112 -2.341236440833
Br -4.9e-11 8.7e-11 0.706845847757
H 0.270523858084 0.987568058559 -3.086399535861
N -1.476187e-06 -5.388934e-06 -3.076874341681
H -1.02124271462 -0.074209477073 -3.083426915746
H 0.381440567185 -0.466368307006 -3.904857304184
H 0.369298803093 -0.446915387496 -2.232814541128
Br -3.9e-11 -1.44e-10 0.703125606344
H -1.008648569892 0.039483810414 -3.249018657528
N 5.503966e-06 -2.15454e-07 -3.076873454305
H 0.273641245078 -0.965070194752 -2.871334489034
H 0.501110770473 0.327292056279 -3.907729320712
H 0.233820068828 0.598297322104 -2.279428161003
Br 1.47e-10 -6e-12 0.703125606368
H 0.987985633555 -0.028218523495 -3.344554537175
N -5.391213e-06 1.53982e-07 -3.076872932988
H -0.236626946401 0.938830937318 -2.743571493027
H -0.580235066403 -0.230367306647 -3.888545617703
H -0.171048702103 -0.680247246978 -2.330846224829
Br -1.44e-10 4e-12 0.703125606381
H 1.013648455623 0.110086059399 -3.269223027449
N -5.531249e-06 -6.00715e-07 -3.174552429244
H -0.248066267138 -0.987096560953 -3.286758875548
H -0.293269282261 0.322451040217 -2.247962173736
H -0.472236041572 0.554567809129 -3.894274885419
Br -1.47e-10 -1.6e-11 0.725447054177
H -1.013451773709 -0.029786043149 -3.350614555244
N 5.530176e-06 1.62536e-07 -3.207111680172
H 0.378888105828 -0.95030172796 -3.250206468576
H 0.431495955956 0.572966421837 -3.937915257176
H 0.202990862188 0.407119090605 -2.289724453645
Br 1.47e-10 4e-12 0.732887536791
H 0.332675507282 0.347227996597 -2.335612092316
N -1.815334e-06 -1.894744e-06 -3.239676913872
H -0.460709931215 0.759792122751 -3.748542252583
H 0.794431474002 -0.344404535865 -3.786312770346
H -0.666371823387 -0.76258925329 -3.088152252664
Br -4.8e-11 -5.1e-11 0.740328019245
H 0.066655405536 -1.021119435348 -3.022690649941
N -3.63723e-07 5.572016e-06 -3.060594841794
H 0.941118791852 0.403356843223 -3.069832645863
H -0.498931967626 0.278151274485 -3.910448013128
H -0.508837175303 0.339533886466 -2.239404356664
Br -1e-11 1.49e-10 0.699405365034
H -0.996783178244 -0.08661263127 -3.408745769971
N 5.439219e-06 4.72625e-07 -3.190831515432
H 0.252233573873 0.990808509534 -3.134588719576
H 0.193746386864 -0.453029937268 -2.293181203274
H 0.550727631743 -0.451172508806 -3.926831649595
Br 1.45e-10 1.3e-11 0.729167295498
H -0.428177087156 0.73504829959 -2.344047916443
N 2.336465e-06 -4.010991e-06 -2.914079917209
H -0.600314957802 -0.201051538803 -3.718866775803
H 0.917624427264 0.3138968646 -3.242689303533
H 0.110835149156 -0.847837886899 -2.35066000587
Br 6.2e-11 -1.07e-10 0.665923193226
H -0.395178434637 -0.846522563929 -2.511073713401
N 2.156399e-06 4.619281e-06 -2.930358853319
H 0.572866744106 -0.255443960559 -3.739713557518
H -0.758915491723 0.618314566906 -3.230833481261
H 0.581197215995 0.483587766035 -2.239773715283
Br 5.7e-11 1.23e-10 0.669643434551
H 0.375659925532 -0.915999615179 -3.533744177928
N -2.049891e-06 4.998401e-06 -3.272230071002
H 0.243158179849 0.20328895 -2.298560934336
H 0.39997048888 0.719459574483 -3.881291045934
H -1.018760108083 -0.006818369275 -3.375349664296
Br -5.5e-11 1.33e-10 0.747768502021
H -0.473658564309 -0.906382195131 -3.106471283513
N 2.584647e-06 4.945921e-06 -3.158273469812
H -0.697934835439 0.748733474292 -3.18605473052
H 0.597285574305 0.120497823269 -2.335301607125
H 0.574271908059 0.037082166885 -4.005261199282
Br 6.9e-11 1.32e-10 0.721726812852
H 0.403043165177 0.824499868469 -3.596218846395
N -2.199315e-06 -4.499108e-06 -3.141990949839
H 0.731880241259 -0.701003625751 -2.995597071468
H -0.400228919721 0.26935441006 -2.238767533223
H -0.734663924075 -0.392788131205 -3.737424706465
Br -5.9e-11 -1.2e-10 0.718006571622
H -0.773972079203 0.664440864166 -3.019711477663
N 4.223389e-06 -3.625702e-06 -3.109434400646
H -0.372922976628 -0.951194343019 -3.177584035847
H 0.539535079129 0.216312432883 -3.952442116211
H 0.607301286636 0.070491430317 -2.287991210858
Br 1.13e-10 -9.7e-11 0.710566088936
H -0.527455173059 -0.817938608498 -2.823666505997
N 2.878203e-06 4.463305e-06 -3.141995165481
H 0.794339782032 -0.306358153552 -3.710900852048
H -0.609507986655 0.602049165785 -3.702875608923
H 0.342583380918 0.52218557223 -2.330506608174
Br 7.7e-11 1.19e-10 0.71800657151
H 0.378277315266 -0.914566564697 -2.63504464
N -2.064173e-06 4.990581e-06 -2.897798481775
H 0.307826317874 0.237301218289 -3.845118405308
H -1.02306949362 -0.032892404625 -2.869532137936
H 0.336994545133 0.71008839973 -2.241473084302
Br -5.5e-11 1.33e-10 0.662202951967
H 0.430177900516 -0.831074289507 -3.378640818202
N -2.347383e-06 4.534983e-06 -2.962913814266
H -0.86999698716 -0.265113383932 -2.492483515678
H 0.643808720606 0.413322738241 -2.282308523667
H -0.203957013704 0.682801915088 -3.698262997857
Br -6.3e-11 1.21e-10 0.677083917279
H -0.197362406949 -0.173585838464 -2.34766341385
N 1.076962e-06 9.47218e-07 -3.3373559333
H -0.370234224881 0.916826597781 -3.603512649805
H 1.012143948262 -0.017293761539 -3.491679914341
H -0.444562282364 -0.725960160739 -3.906471105545
Br 2.9e-11 2.5e-11 0.762649467053
