6
Coordinates from XML
H 0.505275253198 0.874429273793 -2.747040538032
N -2.757272e-06 -4.771735e-06 -2.577821058784
H 0.263217515257 -0.374529643152 -1.661890352442
H -1.008018018287 0.179176390684 -2.596463338542
H 0.2395635643 -0.679009714315 -3.305906531459
Na -1.74e-10 -3.01e-10 2.022178017854
