6
Coordinates from XML
H 0.639677592986 0.402755113315 -3.649662953709
N -3.490702e-06 -2.197823e-06 -2.958887549184
H -0.897810663868 -0.207564559006 -3.405365987669
H 0.402444040579 -0.863665113782 -2.583826831215
H -0.144262463649 0.66850509995 -2.196761882677
Na -2.2e-10 -1.38e-10 2.321108681533
