6
Coordinates from XML
H -0.487911145999 0.894631632941 -2.532824069725
N 2.662517e-06 -4.881978e-06 -2.432118451057
H -0.664521861977 -0.767868110687 -2.563556909447
H 0.741053125818 -0.065708137211 -3.135734456484
H 0.411342884393 -0.06098754611 -1.496368203105
Na 1.68e-10 -3.08e-10 1.907880999433
