6
Coordinates from XML
H 0.442054256989 0.922837987822 -2.101692041664
N -2.412277e-06 -5.0359e-06 -2.140713250332
H 0.716728707537 -0.725818179942 -2.051412456239
H -0.673028854231 -0.088741571906 -1.374091162463
H -0.485720589807 -0.108208258184 -3.035653530298
Na -1.52e-10 -3.17e-10 1.679286962591
