6
Coordinates from XML
H -0.472357862738 -0.061058062709 -2.766540256926
N -7.6560888e-05 -5.938425e-06 -1.860566365513
H 1.012472877179 0.044349391007 -2.005789895246
H -0.311424461277 0.842397421181 -1.369353170163
H -0.228436509749 -0.82566904467 -1.300206206884
Na 3.5496505e-05 2.753277e-06 1.459508821054
