6
Coordinates from XML
H -0.472357862738 -0.061058062709 -2.934659081852
N -7.6560888e-05 -5.938425e-06 -2.028685190439
H 1.012472877179 0.044349391007 -2.173908720173
H -0.311424461277 0.842397421181 -1.53747199509
H -0.228436509749 -0.82566904467 -1.46832503181
Na 3.5496505e-05 2.753277e-06 1.591389996127
