6
Coordinates from XML
H -0.472357862738 -0.061058062709 -3.091569985117
N -7.6560888e-05 -5.938425e-06 -2.185596093704
H 1.012472877179 0.044349391007 -2.330819623437
H -0.311424461277 0.842397421181 -1.694382898354
H -0.228436509749 -0.82566904467 -1.625235935075
Na 3.5496505e-05 2.753277e-06 1.714479092863
