6
Coordinates from XML
H -0.472357862738 -0.061058062709 -3.427807634969
N -7.6560888e-05 -5.938425e-06 -2.521833743556
H 1.012472877179 0.044349391007 -2.66705727329
H -0.311424461277 0.842397421181 -2.030620548207
H -0.228436509749 -0.82566904467 -1.961473584928
Na 3.5496505e-05 2.753277e-06 1.97824144301
