6
Coordinates from XML
H -0.472357862738 -0.061058062709 -3.539886851587
N -7.6560888e-05 -5.938425e-06 -2.633912960174
H 1.012472877179 0.044349391007 -2.779136489908
H -0.311424461277 0.842397421181 -2.142699764825
H -0.228436509749 -0.82566904467 -2.073552801545
Na 3.5496505e-05 2.753277e-06 2.066162226392
