6
Coordinates from XML
H -0.472357862738 -0.061058062709 -3.75283736316
N -7.6560888e-05 -5.938425e-06 -2.846863471747
H 1.012472877179 0.044349391007 -2.992087001481
H -0.311424461277 0.842397421181 -2.355650276398
H -0.228436509749 -0.82566904467 -2.286503313119
Na 3.5496505e-05 2.753277e-06 2.233211714819
