6
Coordinates from XML
H -0.472357862738 -0.061058062709 -3.864916579778
N -7.6560888e-05 -5.938425e-06 -2.958942688365
H 1.012472877179 0.044349391007 -3.104166218099
H -0.311424461277 0.842397421181 -2.467729493016
H -0.228436509749 -0.82566904467 -2.398582529736
Na 3.5496505e-05 2.753277e-06 2.321132498201
