6
Coordinates from XML
H -0.472357862738 -0.061058062709 -4.077867091351
N -7.6560888e-05 -5.938425e-06 -3.171893199938
H 1.012472877179 0.044349391007 -3.317116729672
H -0.311424461277 0.842397421181 -2.680680004589
H -0.228436509749 -0.82566904467 -2.61153304131
Na 3.5496505e-05 2.753277e-06 2.488181986628
