6
Coordinates from XML
H -0.998977505801 -0.223079455397 -3.302973752019
N -7.9775471e-05 -1.5790277e-05 -3.306380733325
H 0.345583316207 0.03292072287 -2.343185090415
H 0.508677022539 -0.719794206149 -3.826915930175
H 0.144981877059 0.910005333782 -3.752127308599
Na 3.6986907e-05 7.320966e-06 2.593683437093
