9
Coordinates from XML
H 0.370470438882 -0.291885719254 -2.260745703036
N -1.2871389e-05 -3.0309533e-05 -3.169667336967
H -0.044139568551 -0.808935241445 -3.795932852324
H -0.939596218856 0.388021660982 -3.046594223161
H 0.613250042979 0.71264956008 -3.575307807468
O 0.347526207707 -0.27660916941 2.341848965678
O -0.239010365983 0.595696767123 0.304205954546
C -0.106219349248 -0.312327326711 1.167214987461
H -0.457295416563 -1.344752888357 0.826408129227
