9
Coordinates from XML
H -0.460408776941 0.501801834648 -2.419233117701
N 2.0279332e-05 -2.9955432e-05 -3.183919941573
H 0.214115964219 0.654575784823 -3.941638367203
H 0.868129637871 -0.42162239592 -2.841583636545
H -0.621800671596 -0.734826038269 -3.533149968397
O -0.508303844194 0.387468467241 2.244004570514
O 0.330604376726 -0.11524729781 0.170253935447
C 0.17393850865 -0.266457425143 1.411026720114
H 0.748845556233 -1.147197566059 1.85721608666
