9
Coordinates from XML
H 0.426117307657 -0.752975366388 -3.346166075381
N 5.17661e-07 2.7244471e-05 -2.798454883856
H 0.688986916334 0.741553391319 -2.643795367549
H -0.802534852166 0.380630848246 -3.307990031781
H -0.312525688215 -0.369173430704 -1.895921548133
O -0.195640377835 0.746784947609 1.987269611064
O 0.167207418423 -0.978192603295 0.521075297331
C 0.02783184401 0.226501839158 0.861973448659
H 0.119811824388 0.975274841888 0.003961249683
