9
Coordinates from XML
H -0.03231404553 -1.001154875822 -2.91115018855
N 1.1204837e-05 -9.371989e-06 -2.698456139874
H 0.407274546049 0.138521099916 -1.769247482327
H 0.574415066813 0.479107507639 -3.39778110654
H -0.949333904744 0.383391012197 -2.715666552981
O -0.917639818868 -0.678992452658 0.875824770567
O 0.807341584531 0.827378804523 0.986353651253
C 0.107967282323 -0.145239420453 1.375988318417
H 0.464767739724 -0.62539271411 2.349360039903
