9
Coordinates from XML
H -0.878122883747 0.188432297424 -1.578326786147
N -2.1226675e-05 -2.2340678e-05 -2.070260043027
H 0.303212547826 -0.957844340772 -1.872499723099
H -0.142663456227 0.111636132969 -3.078096224959
H 0.717403133332 0.65770495144 -1.752069397546
O 0.866251788221 -0.771268438406 0.817325629219
O -0.606024393213 0.984441109972 0.734750407076
C -0.254720459179 -0.208652952873 0.934845142477
H -1.096619141618 -0.898428660854 1.282296349392
