9
Coordinates from XML
H 0.276090263188 -0.600116926151 -2.744199502377
N -1.8586789e-05 3.3410135e-05 -3.526605711978
H -0.484005606615 -0.56132335955 -4.233088543877
H -0.626136662727 0.736047573872 -3.187773163716
H 0.834004622755 0.425467743936 -3.941285231084
O -0.035213574836 0.035624034147 2.57223755842
O 0.206049144704 -0.337036793999 0.322826958435
C -0.167216856512 0.295028256869 1.346590634196
H -0.719956367745 1.270249072896 1.125842694889
