9
Coordinates from XML
H -0.042060179104 0.850376310312 -1.646392111055
N 0.657939820896 0.420376310312 -2.303392111055
H 1.010939820896 -0.333623689688 -1.660392111055
H 0.181939820896 0.006376310312 -3.094392111055
H 1.401939820896 1.083376310312 -2.484392111055
O 0.518879860181 -0.951935553832 0.712876095633
O -0.952120139819 0.703064446168 0.731876095633
C -0.354120139819 -0.252935553832 1.308876095633
H -0.602120139819 -0.485935553832 2.375876095633
