9
Coordinates from XML
H -0.038913810351 0.850885614607 -1.654614545944
N 0.661086189649 0.420885614607 -2.311614545944
H 1.014086189649 -0.333114385393 -1.668614545944
H 0.185086189649 0.006885614607 -3.102614545944
H 1.405086189649 1.083885614607 -2.492614545944
O 0.517618843531 -0.952139675232 0.716171522239
O -0.953381156469 0.702860324768 0.735171522239
C -0.355381156469 -0.253139675232 1.312171522239
H -0.603381156469 -0.486139675232 2.379171522239
