9
Coordinates from XML
H -0.013742860327 0.854960048963 -1.720394025053
N 0.686257139673 0.424960048963 -2.377394025053
H 1.039257139673 -0.329039951037 -1.734394025053
H 0.210257139673 0.010960048963 -3.168394025053
H 1.430257139673 1.087960048963 -2.558394025053
O 0.50753071033 -0.953772646434 0.742534935082
O -0.96346928967 0.701227353566 0.761534935082
C -0.36546928967 -0.254772646434 1.338534935082
H -0.61346928967 -0.487772646434 2.405534935082
