9
Coordinates from XML
H 0.00513535219 0.858015874731 -1.769728634384
N 0.70513535219 0.428015874731 -2.426728634384
H 1.05813535219 -0.325984125269 -1.783728634384
H 0.22913535219 0.014015874731 -3.217728634384
H 1.44913535219 1.091015874731 -2.607728634384
O 0.499964610429 -0.954997374835 0.762307494715
O -0.971035389571 0.700002625165 0.781307494715
C -0.373035389571 -0.255997374835 1.358307494715
H -0.621035389571 -0.488997374835 2.425307494715
