9
Coordinates from XML
H 0.008281720943 0.858525179025 -1.777951069273
N 0.708281720943 0.428525179025 -2.434951069273
H 1.061281720943 -0.325474820975 -1.791951069273
H 0.232281720943 0.014525179025 -3.225951069273
H 1.452281720943 1.091525179025 -2.615951069273
O 0.498703593779 -0.955201496235 0.76560292132
O -0.972296406221 0.699798503765 0.78460292132
C -0.374296406221 -0.256201496235 1.36160292132
H -0.622296406221 -0.489201496235 2.42860292132
