9
Coordinates from XML
H 0.020867195955 0.860562396203 -1.810840808827
N 0.720867195955 0.430562396203 -2.467840808827
H 1.073867195955 -0.323437603797 -1.824840808827
H 0.244867195955 0.016562396203 -3.258840808827
H 1.464867195955 1.093562396203 -2.648840808827
O 0.493659527179 -0.956017981836 0.778784627742
O -0.977340472821 0.698982018164 0.797784627742
C -0.379340472821 -0.257017981836 1.374784627742
H -0.627340472821 -0.490017981836 2.441784627742
