9
Coordinates from XML
H 0.03659903972 0.863108917676 -1.85195298327
N 0.73659903972 0.433108917676 -2.50895298327
H 1.08959903972 -0.320891082324 -1.86595298327
H 0.26059903972 0.019108917676 -3.29995298327
H 1.48059903972 1.096108917676 -2.68995298327
O 0.487354443928 -0.957038588837 0.795261760769
O -0.983645556072 0.697961411163 0.814261760769
C -0.385645556072 -0.258038588837 1.391261760769
H -0.633645556072 -0.491038588837 2.458261760769
