9
Coordinates from XML
H 0.039745408473 0.863618221971 -1.860175418159
N 0.739745408473 0.433618221971 -2.517175418159
H 1.092745408473 -0.320381778029 -1.874175418159
H 0.263745408473 0.019618221971 -3.308175418159
H 1.483745408473 1.096618221971 -2.698175418159
O 0.486093427278 -0.957242710237 0.798557187375
O -0.984906572722 0.697757289763 0.817557187375
C -0.386906572722 -0.258242710237 1.394557187375
H -0.634906572722 -0.491242710237 2.461557187375
