9
Coordinates from XML
H 0.055477252238 0.866164743443 -1.901287592602
N 0.755477252238 0.436164743443 -2.558287592602
H 1.108477252238 -0.317835256557 -1.915287592602
H 0.279477252238 0.022164743443 -3.349287592602
H 1.499477252238 1.099164743443 -2.739287592602
O 0.479788344027 -0.958263317238 0.815034320402
O -0.991211655973 0.696736682762 0.834034320402
C -0.393211655973 -0.259263317238 1.411034320402
H -0.641211655973 -0.492263317238 2.478034320402
