9
Coordinates from XML
H 0.061769989744 0.867183352032 -1.917732462379
N 0.761769989744 0.437183352032 -2.574732462379
H 1.114769989744 -0.316816647968 -1.931732462379
H 0.285769989744 0.023183352032 -3.365732462379
H 1.505769989744 1.100183352032 -2.755732462379
O 0.477266310727 -0.958671560039 0.821625173613
O -0.993733689273 0.696328439961 0.840625173613
C -0.395733689273 -0.259671560039 1.417625173613
H -0.643733689273 -0.492671560039 2.484625173613
