9
Coordinates from XML
H 0.199476892347 -1.13222777426 -2.884547873397
N -0.068770231196 -0.239803552197 -2.461241636182
H 0.08814082901 0.517224675232 -3.132509701435
H -1.059232882214 -0.267905518608 -2.204209818972
H 0.496461061597 -0.075633961364 -1.623725505156
O -0.006568700044 -0.1308209616 2.136758864491
O 0.155601010309 0.650263238111 -0.039521628009
C -0.065134181562 -0.226954107324 0.863669408857
H -0.359037593068 -1.251165074144 0.474105726547
