9
Coordinates from XML
H 0.199476892347 -1.13222777426 -2.927381006403
N -0.068770231196 -0.239803552197 -2.504074769188
H 0.08814082901 0.517224675232 -3.175342834441
H -1.059232882214 -0.267905518608 -2.247042951978
H 0.496461061597 -0.075633961364 -1.666558638162
O -0.006568700044 -0.1308209616 2.153925731485
O 0.155601010309 0.650263238111 -0.022354761014
C -0.065134181562 -0.226954107324 0.880836275851
H -0.359037593068 -1.251165074144 0.491272593541
