9
Coordinates from XML
H 0.199476892347 -1.13222777426 -3.198657515439
N -0.068770231196 -0.239803552197 -2.775351278224
H 0.08814082901 0.517224675232 -3.446619343477
H -1.059232882214 -0.267905518608 -2.518319461014
H 0.496461061597 -0.075633961364 -1.937835147198
O -0.006568700044 -0.1308209616 2.262649222449
O 0.155601010309 0.650263238111 0.086368729949
C -0.065134181562 -0.226954107324 0.989559766815
H -0.359037593068 -1.251165074144 0.599996084505
