9
Coordinates from XML
H -0.0910536354 0.842445714869 -1.518357053504
N 0.6089463646 0.412445714869 -2.175357053504
H 0.9619463646 -0.341554285131 -1.532357053504
H 0.1329463646 -0.001554285131 -2.966357053504
H 1.3529463646 1.075445714869 -2.356357053504
O 0.538515690876 -0.948757092029 0.661561595634
O -0.932484309124 0.706242907971 0.680561595634
C -0.334484309124 -0.249757092029 1.257561595634
H -0.582484309124 -0.482757092029 2.324561595634
