9
Coordinates from XML
H -0.076499004434 0.844801680313 -1.55639280673
N 0.623500995566 0.414801680313 -2.21339280673
H 0.976500995566 -0.339198319687 -1.57039280673
H 0.147500995566 0.000801680313 -3.00439280673
H 1.367500995566 1.077801680313 -2.39439280673
O 0.532682416576 -0.949701327078 0.676805745918
O -0.938317583424 0.705298672922 0.695805745918
C -0.340317583424 -0.250701327078 1.272805745918
H -0.588317583424 -0.483701327078 2.339805745918
