9
Coordinates from XML
H -0.061944373468 0.847157645757 -1.594428559956
N 0.638055626532 0.417157645757 -2.251428559956
H 0.991055626532 -0.336842354243 -1.608428559956
H 0.162055626532 0.003157645757 -3.042428559956
H 1.382055626532 1.080157645757 -2.432428559956
O 0.526849142276 -0.950645562126 0.692049896202
O -0.944150857724 0.704354437874 0.711049896202
C -0.346150857724 -0.251645562126 1.288049896202
H -0.594150857724 -0.484645562126 2.355049896202
