9
Coordinates from XML
H -0.025557796053 0.853047559367 -1.689517943022
N 0.674442203947 0.423047559367 -2.346517943022
H 1.027442203947 -0.330952440633 -1.703517943022
H 0.198442203947 0.009047559367 -3.137517943022
H 1.418442203947 1.086047559367 -2.527517943022
O 0.512265956526 -0.953006149747 0.730160271911
O -0.958734043474 0.701993850253 0.749160271911
C -0.360734043474 -0.254006149747 1.326160271911
H -0.608734043474 -0.487006149747 2.393160271911
