9
Coordinates from XML
H -0.003725849604 0.856581507534 -1.746571572861
N 0.696274150396 0.426581507534 -2.403571572861
H 1.049274150396 -0.327418492466 -1.760571572861
H 0.220274150396 0.012581507534 -3.194571572861
H 1.440274150396 1.089581507534 -2.584571572861
O 0.503516045076 -0.95442250232 0.753026497336
O -0.967483954924 0.70057749768 0.772026497336
C -0.369483954924 -0.25542250232 1.349026497336
H -0.617483954924 -0.48842250232 2.416026497336
