9
Coordinates from XML
H 0.003551465879 0.857759490256 -1.765589449474
N 0.703551465879 0.427759490256 -2.422589449474
H 1.056551465879 -0.326240509744 -1.779589449474
H 0.227551465879 0.013759490256 -3.213589449474
H 1.447551465879 1.090759490256 -2.603589449474
O 0.500599407926 -0.954894619845 0.760648572478
O -0.970400592074 0.700105380155 0.779648572478
C -0.372400592074 -0.255894619845 1.356648572478
H -0.620400592074 -0.488894619845 2.423648572478
