9
Coordinates from XML
H 0.010828781362 0.858937472978 -1.784607326087
N 0.710828781362 0.428937472978 -2.441607326087
H 1.063828781362 -0.325062527022 -1.798607326087
H 0.234828781362 0.014937472978 -3.232607326087
H 1.454828781362 1.091937472978 -2.622607326087
O 0.497682770777 -0.955366737369 0.76827064762
O -0.973317229223 0.699633262631 0.78727064762
C -0.375317229223 -0.256366737369 1.36427064762
H -0.623317229223 -0.489366737369 2.43127064762
