9
Coordinates from XML
H -0.116524239591 0.838322775341 -1.451794485358
N 0.583475760409 0.408322775341 -2.108794485358
H 0.936475760409 -0.345677224659 -1.465794485358
H 0.107475760409 -0.005677224659 -2.899794485358
H 1.327475760409 1.071322775341 -2.289794485358
O 0.5487239209 -0.947104680694 0.634884332638
O -0.9222760791 0.707895319306 0.653884332638
C -0.3242760791 -0.248104680694 1.230884332638
H -0.5722760791 -0.481104680694 2.297884332638
