9
Coordinates from XML
H -0.094692293142 0.841856723508 -1.508848115197
N 0.605307706858 0.411856723508 -2.165848115197
H 0.958307706858 -0.342143276492 -1.522848115197
H 0.129307706858 -0.002143276492 -2.956848115197
H 1.349307706858 1.074856723508 -2.346848115197
O 0.539974009451 -0.948521033267 0.657750558063
O -0.931025990549 0.706478966733 0.676750558063
C -0.333025990549 -0.249521033267 1.253750558063
H -0.581025990549 -0.482521033267 2.320750558063
