9
Coordinates from XML
H -0.087414977659 0.84303470623 -1.52786599181
N 0.612585022341 0.41303470623 -2.18486599181
H 0.965585022341 -0.34096529377 -1.54186599181
H 0.136585022341 -0.00096529377 -2.97586599181
H 1.356585022341 1.07603470623 -2.36586599181
O 0.537057372301 -0.948993150791 0.665372633205
O -0.933942627699 0.706006849209 0.684372633205
C -0.335942627699 -0.249993150791 1.261372633205
H -0.583942627699 -0.482993150791 2.328372633205
