9
Coordinates from XML
H -0.080137662176 0.844212688952 -1.546883868424
N 0.619862337824 0.414212688952 -2.203883868424
H 0.972862337824 -0.339787311048 -1.560883868424
H 0.143862337824 0.000212688952 -2.994883868424
H 1.363862337824 1.077212688952 -2.384883868424
O 0.534140735151 -0.949465268315 0.672994708347
O -0.936859264849 0.705534731685 0.691994708347
C -0.338859264849 -0.250465268315 1.268994708347
H -0.586859264849 -0.483465268315 2.335994708347
