9
Coordinates from XML
H -0.058305715727 0.847746637118 -1.603937498263
N 0.641694284273 0.417746637118 -2.260937498263
H 0.994694284273 -0.336253362882 -1.617937498263
H 0.165694284273 0.003746637118 -3.051937498263
H 1.385694284273 1.080746637118 -2.441937498263
O 0.525390823701 -0.950881620888 0.695860933773
O -0.945609176299 0.704118379112 0.714860933773
C -0.347609176299 -0.251881620888 1.291860933773
H -0.595609176299 -0.484881620888 2.358860933773
