9
Coordinates from XML
H -0.051028400244 0.84892461984 -1.622955374876
N 0.648971599756 0.41892461984 -2.279955374876
H 1.001971599756 -0.33507538016 -1.636955374876
H 0.172971599756 0.00492461984 -3.070955374876
H 1.392971599756 1.08192461984 -2.460955374876
O 0.522474186551 -0.951353738412 0.703483008914
O -0.948525813449 0.703646261588 0.722483008914
C -0.350525813449 -0.252353738412 1.299483008914
H -0.598525813449 -0.485353738412 2.366483008914
