9
Coordinates from XML
H -0.043751084761 0.850102602562 -1.641973251489
N 0.656248915239 0.420102602562 -2.298973251489
H 1.009248915239 -0.333897397438 -1.655973251489
H 0.180248915239 0.006102602562 -3.089973251489
H 1.400248915239 1.083102602562 -2.479973251489
O 0.519557549401 -0.951825855937 0.711105084056
O -0.951442450599 0.703174144063 0.730105084056
C -0.353442450599 -0.252825855937 1.307105084056
H -0.601442450599 -0.485825855937 2.374105084056
