9
Coordinates from XML
H -0.854754814982 -0.472541340628 -2.469340457108
N -0.072843422025 -0.062882541665 -1.951305782713
H 0.800608799828 -0.512585414297 -2.239684311482
H -0.021149952285 0.940333861138 -2.148171150334
H -0.215418903175 -0.20669584915 -0.947880995596
O -0.813662624199 0.803543185134 0.537681980922
O 0.971368298021 -0.667337504266 0.688555863012
C -0.068904015141 -0.059483788093 1.115563731019
H -0.379648292793 -0.328218920457 2.17309226726
