9
Coordinates from XML
H -0.854754814982 -0.472541340628 -2.555006723119
N -0.072843422025 -0.062882541665 -2.036972048725
H 0.800608799828 -0.512585414297 -2.325350577493
H -0.021149952285 0.940333861138 -2.233837416345
H -0.215418903175 -0.20669584915 -1.033547261607
O -0.813662624199 0.803543185134 0.572015714911
O 0.971368298021 -0.667337504266 0.722889597001
C -0.068904015141 -0.059483788093 1.149897465008
H -0.379648292793 -0.328218920457 2.207426001249
