9
Coordinates from XML
H -0.854754814982 -0.472541340628 -2.612117567127
N -0.072843422025 -0.062882541665 -2.094082892732
H 0.800608799828 -0.512585414297 -2.382461421501
H -0.021149952285 0.940333861138 -2.290948260353
H -0.215418903175 -0.20669584915 -1.090658105615
O -0.813662624199 0.803543185134 0.594904870903
O 0.971368298021 -0.667337504266 0.745778752993
C -0.068904015141 -0.059483788093 1.172786621
H -0.379648292793 -0.328218920457 2.230315157241
