9
Coordinates from XML
H -0.854754814982 -0.472541340628 -2.826283232156
N -0.072843422025 -0.062882541665 -2.308248557761
H 0.800608799828 -0.512585414297 -2.59662708653
H -0.021149952285 0.940333861138 -2.505113925382
H -0.215418903175 -0.20669584915 -1.304823770644
O -0.813662624199 0.803543185134 0.680739205874
O 0.971368298021 -0.667337504266 0.831613087964
C -0.068904015141 -0.059483788093 1.258620955971
H -0.379648292793 -0.328218920457 2.316149492212
