9
Coordinates from XML
H -0.854754814982 -0.472541340628 -2.869116365162
N -0.072843422025 -0.062882541665 -2.351081690767
H 0.800608799828 -0.512585414297 -2.639460219536
H -0.021149952285 0.940333861138 -2.547947058388
H -0.215418903175 -0.20669584915 -1.34765690365
O -0.813662624199 0.803543185134 0.697906072869
O 0.971368298021 -0.667337504266 0.848779954959
C -0.068904015141 -0.059483788093 1.275787822965
H -0.379648292793 -0.328218920457 2.333316359206
