9
Coordinates from XML
H -0.18135029244 -0.809100941451 -2.279579711781
N -0.159195417883 0.123957181485 -2.699671823865
H -0.11301417773 0.830327909648 -1.959927732425
H 0.663713344005 0.207362274967 -3.302777203235
H -1.006104703274 0.267913195461 -3.256351863919
O -0.114858346257 -1.154625453289 0.731095029313
O 0.459805273093 0.88591178871 1.668409177633
C -0.150747522209 0.117430336303 0.849477015246
H -0.830960402484 0.647651024364 0.112372109629
