9
Coordinates from XML
H -0.785481051804 0.298740937072 -2.924733122884
N 0.05195724773 -0.175668807265 -2.576597846262
H 0.167542559132 0.024003992911 -1.579058653034
H -0.046036964286 -1.185423678916 -2.713212531512
H 0.872235575061 0.159848050673 -3.088889991807
O -1.048242036662 -0.360858445363 1.39919462452
O 0.935597733387 0.741559564927 0.928405264627
C 0.049212868327 -0.166397376021 0.773730090429
H 0.271605327613 -0.917103347963 -0.047323695974
