9
Coordinates from XML
H -0.785481051804 0.298740937072 -3.453008429955
N 0.05195724773 -0.175668807265 -3.104873153333
H 0.167542559132 0.024003992911 -2.107333960105
H -0.046036964286 -1.185423678916 -3.241487838583
H 0.872235575061 0.159848050673 -3.617165298878
O -1.048242036662 -0.360858445363 1.610919317449
O 0.935597733387 0.741559564927 1.140129957556
C 0.049212868327 -0.166397376021 0.985454783358
H 0.271605327613 -0.917103347963 0.164400996955
