9
Coordinates from XML
H -0.785481051804 0.298740937072 -3.595785539974
N 0.05195724773 -0.175668807265 -3.247650263352
H 0.167542559132 0.024003992911 -2.250111070124
H -0.046036964286 -1.185423678916 -3.384264948602
H 0.872235575061 0.159848050673 -3.759942408897
O -1.048242036662 -0.360858445363 1.668142207429
O 0.935597733387 0.741559564927 1.197352847536
C 0.049212868327 -0.166397376021 1.042677673339
H 0.271605327613 -0.917103347963 0.221623886935
