9
Coordinates from XML
H 1.08851067662 -0.095324737794 -2.148818871974
N 0.221320694172 -0.084096605354 -2.692345453901
H -0.580154897641 -0.056938193296 -2.055782079405
H 0.206659541262 0.743429408951 -3.2947216527
H 0.169592772072 -0.927538545842 -3.270100811937
O 0.152277880499 -0.322329206262 -0.012319294408
O -0.631671328512 0.50456338218 2.00616048228
C 0.209453192789 -0.079650993636 1.241182412077
H 1.154683284411 -0.43895812095 1.755561304118
