9
Coordinates from XML
H -0.081784318045 0.360038960878 -3.314536077872
N -0.059844940776 -0.122655835327 -2.412266672804
H 0.60890715572 -0.896747782967 -2.4554630083
H 0.22533904332 0.534034817426 -1.680625489957
H -0.991607485179 -0.488434675166 -2.198033762615
O 0.683598883234 -0.788274388407 1.456183485772
O -0.55401976636 1.054212726291 0.788254122458
C -0.056578397801 -0.116289773797 0.659940727722
H -0.31219315504 -0.640660176212 -0.31311834519
