9
Coordinates from XML
H -0.081784318045 0.360038960878 -3.357369210877
N -0.059844940776 -0.122655835327 -2.45509980581
H 0.60890715572 -0.896747782967 -2.498296141306
H 0.22533904332 0.534034817426 -1.723458622963
H -0.991607485179 -0.488434675166 -2.24086689562
O 0.683598883234 -0.788274388407 1.473350352766
O -0.55401976636 1.054212726291 0.805420989452
C -0.056578397801 -0.116289773797 0.677107594716
H -0.31219315504 -0.640660176212 -0.295951478196
