12
Coordinates from XML
N 0.430106420438 0.281553240886 -4.280489943508
C -0.478222828606 0.30254938016 -3.080283366302
H 0.074074103441 0.910953328649 -5.019492956139
H 0.495398543507 -0.672540589272 -4.673122852621
H 1.382403441998 0.591470431454 -4.023936378303
H -1.469697324844 -0.003037887568 -3.428371047802
H -0.525794566966 1.341047400391 -2.738495830271
C -0.037301707474 -0.604123255757 -1.91714091083
H 0.007698573427 -1.648507818703 -2.23547372833
H -0.747651687021 -0.529612236611 -1.090029849253
H 0.948252626221 -0.309586699188 -1.548302237587
Br -3.1551188e-05 -1.7837868e-05 1.835569072386
