12
Coordinates from XML
N 0.430106 0.281553 -4.28049
C -0.478223 0.302549 -3.08028
H 0.0740741 0.910953 -5.01949
H 0.495399 -0.672541 -4.67312
H 1.3824 0.59147 -4.02394
H -1.4697 -0.00303789 -3.42837
H -0.525795 1.34105 -2.7385
C -0.0373017 -0.604123 -1.91714
H 0.00769857 -1.64851 -2.23547
H -0.747652 -0.529612 -1.09003
H 0.948253 -0.309587 -1.5483
Br -3.15512e-05 -1.78379e-05 1.83557
