12
Coordinates from XML
N 0.793517 -0.867251 -3.39618
C -0.0770947 0.360636 -3.41434
H 1.26468 -0.994868 -4.30763
H 0.230127 -1.71225 -3.2031
H 1.52049 -0.789387 -2.6653
H -0.797948 0.225493 -4.22654
H 0.574706 1.20627 -3.65439
C -0.827037 0.643583 -2.10022
H -1.49151 -0.186108 -1.84687
H -1.43238 1.54815 -2.19811
H -0.123951 0.790769 -1.27675
Br -5.45246e-05 6.0852e-05 1.73969
