12
Coordinates from XML
N 0.793516748595 -0.867250656898 -3.396179494366
C -0.077094679117 0.36063561432 -3.414338166969
H 1.264677102662 -0.994868310976 -4.307634698434
H 0.230126818949 -1.712253359735 -3.203096820955
H 1.520489606655 -0.789386936998 -2.665299395534
H -0.797947661769 0.225493284346 -4.226543693269
H 0.574705787956 1.206265015183 -3.654394401256
C -0.827037247363 0.643582857024 -2.100224748089
H -1.49151133628 -0.186108380472 -1.846874084222
H -1.43237570084 1.54815214335 -2.198109663052
H -0.123950729404 0.790768587348 -1.276746270075
Br -5.4524589e-05 6.0852048e-05 1.739688772572
