12
Coordinates from XML
N -0.966702 0.207336 -3.29809
C -0.11608 -0.48835 -2.26927
H -1.83485 -0.325459 -3.47551
H -0.456512 0.299975 -4.19243
H -1.22924 1.15397 -2.97606
H 0.0961404 -1.48895 -2.65829
H -0.725917 -0.580231 -1.36527
C 1.20527 0.224789 -1.93041
H 1.83401 0.318589 -2.81923
H 1.75907 -0.343326 -1.17887
H 1.01503 1.22408 -1.53124
Br 6.54623e-05 -1.639e-05 1.48171
