12
Coordinates from XML
N 0.0244938 0.36684 -1.95306
C 0.471757 -0.309706 -3.22123
H 0.703324 0.200749 -1.19107
H -0.895345 0.00498685 -1.65028
H -0.0598293 1.38762 -2.09322
H 0.570843 -1.37546 -2.99337
H 1.45898 0.0953489 -3.46388
C -0.472024 -0.124274 -4.423
H -1.46235 -0.531177 -4.2044
H -0.0750719 -0.6439 -5.2986
H -0.577737 0.934228 -4.67302
Br 4.85391e-07 -2.64619e-05 1.83541
