12
Coordinates from XML
N -0.488625 -0.755053 -1.88939
C -0.0641604 -0.270683 -3.24999
H -0.935014 -1.68533 -1.95534
H -1.16678 -0.101237 -1.46354
H 0.326303 -0.832271 -1.25799
H -0.964517 -0.243815 -3.87144
H 0.623189 -1.02131 -3.65206
C 0.614341 1.11091 -3.26415
H -0.0597134 1.87767 -2.8745
H 0.890164 1.38572 -4.28526
H 1.522 1.10316 -2.6557
Br 3.30602e-05 5.03065e-05 1.60692
