12
Coordinates from XML
N -0.48862472257 -0.755053101051 -1.889393215546
C -0.064160386033 -0.27068321424 -3.249986663368
H -0.935013869382 -1.685330781237 -1.955340931623
H -1.166775722364 -0.101236579319 -1.463536576772
H 0.326303220593 -0.832270917611 -1.257991702752
H -0.964517212371 -0.243815020495 -3.871441387649
H 0.623189342722 -1.021314392726 -3.652060179488
C 0.614340574709 1.110911123586 -3.264150259671
H -0.059713399863 1.877673934 -2.874501757517
H 0.890163999712 1.385719390366 -4.285259239324
H 1.521996636708 1.103157571498 -2.655700220435
Br 3.3060186e-05 5.0306502e-05 1.606915028171
