12
Coordinates from XML
N -0.373348 0.795761 -3.52373
C -0.355162 0.0774873 -2.20095
H -1.14332 1.48511 -3.55487
H -0.507003 0.127431 -4.30102
H 0.51642 1.29866 -3.67911
H -1.33214 -0.402422 -2.08796
H -0.243598 0.843398 -1.42732
C 0.757689 -0.975144 -2.04963
H 0.65881 -1.7554 -2.80826
H 0.700222 -1.44664 -1.06543
H 1.74336 -0.514252 -2.15034
Br 2.38599e-05 -5.39702e-05 1.5407
