12
Coordinates from XML
N 0.309984169332 -0.874685430919 -3.914163837884
C -0.015909872546 0.49057267332 -3.370231789945
H 0.51400767321 -0.825731769628 -4.926590073623
H -0.483710374997 -1.522496563879 -3.775930680807
H 1.137294924898 -1.270544562246 -3.437099402015
H -0.874943453346 0.860745674752 -3.93821378347
H 0.84908918547 1.127900633248 -3.577956678265
C -0.336479629489 0.529667658369 -1.865215614424
H -1.204367032937 -0.094059026288 -1.637539526348
H -0.560086537376 1.552850583545 -1.553192624928
H 0.513191362562 0.171842493265 -1.278588431977
Br -2.1236581e-05 6.1955256e-05 1.79868950653
