12
Coordinates from XML
N -0.354478324683 0.540721759882 -1.775270648928
C -0.292682149071 0.26263318707 -3.253393332893
H -1.023272405239 1.303201610685 -1.574353031897
H 0.573369173076 0.822653508615 -1.417035796692
H -0.659110772134 -0.30047206246 -1.257264819507
H 0.002546167102 1.197694315401 -3.739264937861
H -1.30804495016 0.003267653551 -3.568556513302
C 0.677506009326 -0.860305945622 -3.662183886936
H 1.700189424497 -0.616341644723 -3.364358475797
H 0.661119998528 -0.997470948567 -4.746240598652
H 0.394627430069 -1.806326604492 -3.194064546287
Br 2.2861232e-05 -3.5708972e-05 1.658501747002
