12
Coordinates from XML
N -0.721575 0.531353 -1.87338
C 0.50016 0.271051 -2.71339
H -0.547499 1.29892 -1.20288
H -0.98313 -0.312676 -1.3368
H -1.52415 0.798113 -2.4679
H 1.31321 0.0276247 -2.02255
H 0.737118 1.20889 -3.22511
C 0.347075 -0.857657 -3.74874
H 0.119009 -1.80641 -3.25684
H 1.27449 -0.980251 -4.31365
H -0.455152 -0.62966 -4.45482
Br 5.15483e-05 -3.50345e-05 1.59955
