12
Coordinates from XML
N 0.625868 -0.443221 -4.01399
C -0.135113 0.537408 -3.16236
H 0.89341 -0.0137636 -4.91566
H 0.0503629 -1.2787 -4.21271
H 1.48853 -0.75136 -3.53483
H -1.01247 0.844096 -3.74008
H 0.517361 1.40425 -3.01946
C -0.582343 -0.00359184 -1.79245
H -1.24332 -0.86536 -1.91314
H -1.12472 0.768034 -1.24047
H 0.280833 -0.307551 -1.19525
Br -4.33457e-05 3.27151e-05 1.76921
