12
Coordinates from XML
N 1.23831 -0.0382205 -2.52372
C -0.212687 0.0900389 -2.14403
H 1.84403 0.0599329 -1.69156
H 1.50426 0.692958 -3.20443
H 1.42434 -0.960949 -2.95116
H -0.330737 1.07002 -1.67151
H -0.415044 -0.688962 -1.40257
C -1.20358 -0.0414227 -3.31459
H -1.02428 0.734289 -4.06307
H -2.22994 0.0627538 -2.95405
H -1.1081 -1.01809 -3.79533
Br -8.55066e-05 3.02379e-06 1.55537
