12
Coordinates from XML
N -0.527112 0.0011586 -1.73669
C -0.425129 -0.0845127 -3.23611
H -1.50736 -0.116488 -1.4296
H -0.191142 0.918685 -1.39907
H 0.0420765 -0.736416 -1.28865
H -1.07276 0.698374 -3.64261
H -0.82457 -1.0617 -3.52439
C 0.997912 0.078303 -3.79986
H 1.4122 1.05299 -3.53068
H 0.983164 0.00286099 -4.88998
H 1.65957 -0.700422 -3.41269
Br 3.40377e-05 -4.63195e-07 1.67324
