12
Coordinates from XML
N -0.582266 0.128199 -1.87261
C 0.167844 -0.543711 -2.99148
H -0.771969 -0.539931 -1.10668
H -1.48688 0.498377 -2.20929
H -0.0346272 0.915191 -1.48599
H -0.450793 -1.38081 -3.3293
H 1.09325 -0.937005 -2.55963
C 0.502031 0.366648 -4.18686
H -0.410376 0.763087 -4.63902
H 1.04459 -0.196444 -4.95028
H 1.12774 1.20543 -3.87216
Br 4.05144e-05 -1.12403e-05 1.73222
