12
Coordinates from XML
N -0.752123 -0.53898 -2.1193
C -0.0120929 -0.336475 -3.41442
H -1.31787 -1.40375 -2.15285
H -1.38729 0.255094 -1.93295
H -0.0908408 -0.61654 -1.32846
H -0.765947 -0.295802 -4.20665
H 0.612498 -1.22268 -3.56304
C 0.864041 0.927906 -3.47007
H 0.257171 1.82623 -3.33287
H 1.36415 0.998454 -4.43918
H 1.63037 0.902939 -2.69146
Br 5.12865e-05 3.52554e-05 1.72486
