12
Coordinates from XML
N 0.706358 0.504561 -3.54709
C 0.32843 -0.0184359 -2.18707
H 1.68199 0.846865 -3.549
H 0.0893696 1.28699 -3.82249
H 0.623875 -0.238853 -4.26072
H 0.469038 0.805594 -1.48083
H 1.03746 -0.816878 -1.94766
C -1.11008 -0.554628 -2.07502
H -1.83517 0.230879 -2.30155
H -1.30134 -0.913628 -1.06072
H -1.26897 -1.38543 -2.76685
Br -4.67178e-05 -3.4526e-05 1.54807
