12
Coordinates from XML
N 0.826855 0.517613 -2.09008
C 0.267694 -0.0510772 -3.36677
H 1.80527 0.823887 -2.22396
H 0.810486 -0.189895 -1.3365
H 0.273002 1.33347 -1.77967
H 0.916571 -0.884559 -3.65284
H 0.345069 0.735756 -4.12338
C -1.18947 -0.53875 -3.27618
H -1.28688 -1.33251 -2.53149
H -1.51609 -0.934047 -4.24123
H -1.85627 0.281753 -3.00002
Br -5.52198e-05 -3.55712e-05 1.67326
