12
Coordinates from XML
N 0.244656 1.18665 -2.04372
C -0.0923445 0.419648 -3.24272
H 1.23266 1.44065 -1.95372
H 0.109656 0.601648 -1.16772
H -0.334344 2.00865 -1.85172
H 0.545656 -0.468352 -3.25472
H 0.145656 1.04965 -4.10372
C -1.55934 0.0526476 -3.22172
H -1.79834 -0.585352 -2.36372
H -1.82434 -0.496352 -4.13072
H -2.19134 0.945648 -3.16872
Br 0.260285 -0.339789 1.62647
