12
Coordinates from XML
N 0.244655501374 1.186647566023 -2.043715254982
C -0.092344498626 0.419647566023 -3.242715254982
H 1.232655501374 1.440647566023 -1.953715254982
H 0.109655501374 0.601647566023 -1.167715254982
H -0.334344498626 2.008647566023 -1.851715254982
H 0.545655501374 -0.468352433977 -3.254715254982
H 0.145655501374 1.049647566023 -4.103715254982
C -1.559344498626 0.052647566023 -3.221715254982
H -1.798344498626 -0.585352433977 -2.363715254982
H -1.824344498626 -0.496352433977 -4.130715254982
H -2.191344498626 0.945647566023 -3.168715254982
Br 0.260285423992 -0.339789450335 1.626469809569
