12
Coordinates from XML
N 0.24386 1.19162 -2.05848
C -0.0931404 0.424622 -3.25748
H 1.23186 1.44562 -1.96848
H 0.10886 0.606622 -1.18248
H -0.33514 2.01362 -1.86648
H 0.54486 -0.463378 -3.26948
H 0.14486 1.05462 -4.11848
C -1.56014 0.057622 -3.23648
H -1.79914 -0.580378 -2.37848
H -1.82514 -0.491378 -4.14548
H -2.19214 0.950622 -3.18348
Br 0.26075 -0.342693 1.63509
