12
Coordinates from XML
N 0.243063677791 1.196596463415 -2.073243582442
C -0.093936322209 0.429596463415 -3.272243582442
H 1.231063677791 1.450596463415 -1.983243582442
H 0.108063677791 0.611596463415 -1.197243582442
H -0.335936322209 2.018596463415 -1.881243582442
H 0.544063677791 -0.458403536585 -3.284243582442
H 0.144063677791 1.059596463415 -4.133243582442
C -1.560936322209 0.062596463415 -3.251243582442
H -1.799936322209 -0.575403536585 -2.393243582442
H -1.825936322209 -0.486403536585 -4.160243582442
H -2.192936322209 0.955596463415 -3.198243582442
Br 0.261214592406 -0.345596752928 1.643705883663
