12
Coordinates from XML
N 0.243064 1.1966 -2.07324
C -0.0939363 0.429596 -3.27224
H 1.23106 1.4506 -1.98324
H 0.108064 0.611596 -1.19724
H -0.335936 2.0186 -1.88124
H 0.544064 -0.458404 -3.28424
H 0.144064 1.0596 -4.13324
C -1.56094 0.0625965 -3.25124
H -1.79994 -0.575404 -2.39324
H -1.82594 -0.486404 -4.16024
H -2.19294 0.955596 -3.19824
Br 0.261215 -0.345597 1.64371
