12
Coordinates from XML
N 0.242268 1.20157 -2.08801
C -0.0947322 0.434571 -3.28701
H 1.23027 1.45557 -1.99801
H 0.107268 0.616571 -1.21201
H -0.336732 2.02357 -1.89601
H 0.543268 -0.453429 -3.29901
H 0.143268 1.06457 -4.14801
C -1.56173 0.0675709 -3.26601
H -1.80073 -0.570429 -2.40801
H -1.82673 -0.481429 -4.17501
H -2.19373 0.960571 -3.21301
Br 0.261679 -0.3485 1.65232
