12
Coordinates from XML
N 0.242267766 1.201570912111 -2.088007746172
C -0.094732234 0.434570912111 -3.287007746172
H 1.230267766 1.455570912111 -1.998007746172
H 0.107267766 0.616570912111 -1.212007746172
H -0.336732234 2.023570912111 -1.896007746172
H 0.543267766 -0.453429087889 -3.299007746172
H 0.143267766 1.064570912111 -4.148007746172
C -1.561732234 0.067570912111 -3.266007746172
H -1.800732234 -0.570429087889 -2.408007746172
H -1.826732234 -0.481429087889 -4.175007746172
H -2.193732234 0.960570912111 -3.213007746172
Br 0.261679176614 -0.348500404224 1.652323920711
