12
Coordinates from XML
N 0.241073898313 1.209032585155 -2.110153991767
C -0.095926101687 0.442032585155 -3.309153991767
H 1.229073898313 1.463032585155 -2.020153991767
H 0.106073898313 0.624032585155 -1.234153991767
H -0.337926101687 2.031032585155 -1.918153991767
H 0.542073898313 -0.445967414845 -3.321153991767
H 0.142073898313 1.072032585155 -4.170153991767
C -1.562926101687 0.075032585155 -3.288153991767
H -1.801926101687 -0.562967414845 -2.430153991767
H -1.827926101687 -0.473967414845 -4.197153991767
H -2.194926101687 0.968032585155 -3.235153991767
Br 0.262376052925 -0.352855881168 1.665250976281
