12
Coordinates from XML
N 0.240676 1.21152 -2.11754
C -0.0963241 0.44452 -3.31654
H 1.22868 1.46552 -2.02754
H 0.105676 0.62652 -1.24154
H -0.338324 2.03352 -1.92554
H 0.541676 -0.44348 -3.32854
H 0.141676 1.07452 -4.17754
C -1.56332 0.0775198 -3.29554
H -1.80232 -0.56048 -2.43754
H -1.82832 -0.47148 -4.20454
H -2.19532 0.97052 -3.24254
Br 0.262608 -0.354308 1.66956
