12
Coordinates from XML
N 0.23948207473 1.218981482548 -2.139682319227
C -0.09751792527 0.451981482548 -3.338682319227
H 1.22748207473 1.472981482548 -2.049682319227
H 0.10448207473 0.633981482548 -1.263682319227
H -0.33951792527 2.040981482548 -1.947682319227
H 0.54048207473 -0.436018517452 -3.350682319227
H 0.14048207473 1.081981482548 -4.199682319227
C -1.56451792527 0.084981482548 -3.317682319227
H -1.80351792527 -0.553018517452 -2.459682319227
H -1.82951792527 -0.464018517452 -4.226682319227
H -2.19651792527 0.977981482548 -3.264682319227
Br 0.26330522134 -0.358663183761 1.682487050376
