12
Coordinates from XML
N 0.238288 1.22644 -2.16183
C -0.0987118 0.459443 -3.36083
H 1.22629 1.48044 -2.07183
H 0.103288 0.641443 -1.28583
H -0.340712 2.04844 -1.96983
H 0.539288 -0.428557 -3.37283
H 0.139288 1.08944 -4.22183
C -1.56571 0.0924432 -3.33983
H -1.80471 -0.545557 -2.48183
H -1.83071 -0.456557 -4.24883
H -2.19771 0.985443 -3.28683
Br 0.264002 -0.363019 1.69541
