12
Coordinates from XML
N 0.237492 1.23142 -2.17659
C -0.0995077 0.464418 -3.37559
H 1.22549 1.48542 -2.08659
H 0.102492 0.646418 -1.30059
H -0.341508 2.05342 -1.98459
H 0.538492 -0.423582 -3.38759
H 0.138492 1.09442 -4.23659
C -1.56651 0.0974176 -3.35459
H -1.80551 -0.540582 -2.49659
H -1.83151 -0.451582 -4.26359
H -2.19851 0.990418 -3.30159
Br 0.264467 -0.365922 1.70403
