12
Coordinates from XML
N 0.237094339356 1.233904828636 -2.183974810417
C -0.099905660644 0.466904828636 -3.382974810417
H 1.225094339356 1.487904828636 -2.093974810417
H 0.102094339356 0.648904828636 -1.307974810417
H -0.341905660644 2.055904828636 -1.991974810417
H 0.538094339356 -0.421095171364 -3.394974810417
H 0.138094339356 1.096904828636 -4.243974810417
C -1.566905660644 0.099904828636 -3.361974810417
H -1.805905660644 -0.538095171364 -2.503974810417
H -1.831905660644 -0.449095171364 -4.270974810417
H -2.198905660644 0.992904828636 -3.308974810417
Br 0.264698973962 -0.367374137649 1.708341161517
