12
Coordinates from XML
N 0.236298 1.23888 -2.19874
C -0.100702 0.471879 -3.39774
H 1.2243 1.49288 -2.10874
H 0.101298 0.653879 -1.32274
H -0.342702 2.06088 -2.00674
H 0.537298 -0.416121 -3.40974
H 0.137298 1.10188 -4.25874
C -1.5677 0.104879 -3.37674
H -1.8067 -0.533121 -2.51874
H -1.8327 -0.444121 -4.28574
H -2.1997 0.997879 -3.32374
Br 0.265164 -0.370278 1.71696
