12
Coordinates from XML
N 0.2359 1.24137 -2.20612
C -0.1011 0.474367 -3.40512
H 1.2239 1.49537 -2.11612
H 0.1009 0.656367 -1.33012
H -0.3431 2.06337 -2.01412
H 0.5369 -0.413633 -3.41712
H 0.1369 1.10437 -4.26612
C -1.5681 0.107367 -3.38412
H -1.8071 -0.530633 -2.52612
H -1.8331 -0.441633 -4.29312
H -2.2001 1.00037 -3.33112
Br 0.265396 -0.37173 1.72127
