12
Coordinates from XML
N 0.235105 1.24634 -2.22089
C -0.101895 0.479341 -3.41989
H 1.2231 1.50034 -2.13089
H 0.100105 0.661341 -1.34489
H -0.343895 2.06834 -2.02889
H 0.536105 -0.408659 -3.43189
H 0.136105 1.10934 -4.28089
C -1.5689 0.112341 -3.39889
H -1.8079 -0.525659 -2.54089
H -1.8339 -0.436659 -4.30789
H -2.2009 1.00534 -3.34589
Br 0.26586 -0.374633 1.72989
