12
Coordinates from XML
N 0.235104559878 1.246340950376 -2.220885219742
C -0.101895440122 0.479340950376 -3.419885219742
H 1.223104559878 1.500340950376 -2.130885219742
H 0.100104559878 0.661340950376 -1.344885219742
H -0.343895440122 2.068340950376 -2.028885219742
H 0.536104559878 -0.408659049624 -3.431885219742
H 0.136104559878 1.109340950376 -4.280885219742
C -1.568895440122 0.112340950376 -3.398885219742
H -1.807895440122 -0.525659049624 -2.540885219742
H -1.833895440122 -0.436659049624 -4.307885219742
H -2.200895440122 1.005340950376 -3.345885219742
Br 0.26586043448 -0.37463326589 1.729886254135
