12
Coordinates from XML
N 0.234706603982 1.248828174724 -2.228267301607
C -0.102293396018 0.481828174724 -3.427267301607
H 1.222706603982 1.502828174724 -2.138267301607
H 0.099706603982 0.663828174724 -1.352267301607
H -0.344293396018 2.070828174724 -2.036267301607
H 0.535706603982 -0.406171825276 -3.439267301607
H 0.135706603982 1.111828174724 -4.288267301607
C -1.569293396018 0.114828174724 -3.406267301607
H -1.808293396018 -0.523171825276 -2.548267301607
H -1.834293396018 -0.434171825276 -4.315267301607
H -2.201293396018 1.007828174724 -3.353267301607
Br 0.266092726584 -0.376085091538 1.734195272659
