12
Coordinates from XML
N 0.234707 1.24883 -2.22827
C -0.102293 0.481828 -3.42727
H 1.22271 1.50283 -2.13827
H 0.0997066 0.663828 -1.35227
H -0.344293 2.07083 -2.03627
H 0.535707 -0.406172 -3.43927
H 0.135707 1.11183 -4.28827
C -1.56929 0.114828 -3.40627
H -1.80829 -0.523172 -2.54827
H -1.83429 -0.434172 -4.31527
H -2.20129 1.00783 -3.35327
Br 0.266093 -0.376085 1.7342
