12
Coordinates from XML
N 0.234308648086 1.251315399072 -2.235649383472
C -0.102691351914 0.484315399072 -3.434649383472
H 1.222308648086 1.505315399072 -2.145649383472
H 0.099308648086 0.666315399072 -1.359649383472
H -0.344691351914 2.073315399072 -2.043649383472
H 0.535308648086 -0.403684600928 -3.446649383472
H 0.135308648086 1.114315399072 -4.295649383472
C -1.569691351914 0.117315399072 -3.413649383472
H -1.808691351914 -0.520684600928 -2.555649383472
H -1.834691351914 -0.431684600928 -4.322649383472
H -2.201691351914 1.010315399072 -3.360649383472
Br 0.266325018688 -0.377536917186 1.738504291183
