12
Coordinates from XML
N 0.232716824504 1.261264296464 -2.265177710932
C -0.104283175496 0.494264296464 -3.464177710932
H 1.220716824504 1.515264296464 -2.175177710932
H 0.097716824504 0.676264296464 -1.389177710932
H -0.346283175496 2.083264296464 -2.073177710932
H 0.533716824504 -0.393735703536 -3.476177710932
H 0.133716824504 1.124264296464 -4.325177710932
C -1.571283175496 0.127264296464 -3.443177710932
H -1.810283175496 -0.510735703536 -2.585177710932
H -1.836283175496 -0.421735703536 -4.352177710932
H -2.203283175496 1.020264296464 -3.390177710932
Br 0.267254187102 -0.383344219779 1.755740365277
