12
Coordinates from XML
N 0.231921 1.26624 -2.27994
C -0.105079 0.499239 -3.47894
H 1.21992 1.52024 -2.18994
H 0.0969209 0.681239 -1.40394
H -0.347079 2.08824 -2.08794
H 0.532921 -0.388761 -3.49094
H 0.132921 1.12924 -4.33994
C -1.57208 0.132239 -3.45794
H -1.81108 -0.505761 -2.59994
H -1.83708 -0.416761 -4.36694
H -2.20408 1.02524 -3.40494
Br 0.267719 -0.386248 1.76436
