12
Coordinates from XML
N 0.253614 1.13066 -1.87754
C -0.0833864 0.36366 -3.07654
H 1.24161 1.38466 -1.78754
H 0.118614 0.54566 -1.00154
H -0.325386 1.95266 -1.68554
H 0.554614 -0.52434 -3.08854
H 0.154614 0.99366 -3.93754
C -1.55039 -0.00334036 -3.05554
H -1.78939 -0.64134 -2.19754
H -1.81539 -0.55234 -3.96454
H -2.18239 0.88966 -3.00254
Br 0.255056 -0.307109 1.52947
