12
Coordinates from XML
N 0.249932 1.15367 -1.94584
C -0.0870682 0.386671 -3.14484
H 1.23793 1.40767 -1.85584
H 0.114932 0.568671 -1.06984
H -0.329068 1.97567 -1.75384
H 0.550932 -0.501329 -3.15684
H 0.150932 1.01667 -4.00584
C -1.55407 0.0196707 -3.12384
H -1.79307 -0.618329 -2.26584
H -1.81907 -0.529329 -4.03284
H -2.18607 0.912671 -3.07084
Br 0.257206 -0.32054 1.56934
