12
Coordinates from XML
N 0.238886494478 1.222703859123 -2.150730332903
C -0.098113505522 0.455703859123 -3.349730332903
H 1.226886494478 1.476703859123 -2.060730332903
H 0.103886494478 0.637703859123 -1.274730332903
H -0.340113505522 2.044703859123 -1.958730332903
H 0.539886494478 -0.432296140877 -3.361730332903
H 0.139886494478 1.085703859123 -4.210730332903
C -1.565113505522 0.088703859123 -3.328730332903
H -1.804113505522 -0.549296140877 -2.470730332903
H -1.830113505522 -0.460296140877 -4.237730332903
H -2.197113505522 0.981703859123 -3.275730332903
Br 0.263652869386 -0.36083598405 1.688935921636
