12
Coordinates from XML
N 0.237045610063 1.234209386719 -2.184878738809
C -0.099954389937 0.467209386719 -3.383878738809
H 1.225045610063 1.488209386719 -2.094878738809
H 0.102045610063 0.649209386719 -1.308878738809
H -0.341954389937 2.056209386719 -1.992878738809
H 0.538045610063 -0.420790613281 -3.395878738809
H 0.138045610063 1.097209386719 -4.244878738809
C -1.566954389937 0.100209386719 -3.362878738809
H -1.805954389937 -0.537790613281 -2.504878738809
H -1.831954389937 -0.448790613281 -4.271878738809
H -2.198954389937 0.993209386719 -3.309878738809
Br 0.264727417893 -0.367551912219 1.708868796439
