12
Coordinates from XML
N 0.235204725647 1.245714914316 -2.219027144715
C -0.101795274353 0.478714914316 -3.418027144715
H 1.223204725647 1.499714914316 -2.129027144715
H 0.100204725647 0.660714914316 -1.343027144715
H -0.343795274353 2.067714914316 -2.027027144715
H 0.536204725647 -0.409285085684 -3.430027144715
H 0.136204725647 1.108714914316 -4.279027144715
C -1.568795274353 0.111714914316 -3.397027144715
H -1.807795274353 -0.526285085684 -2.539027144715
H -1.833795274353 -0.437285085684 -4.306027144715
H -2.200795274353 1.004714914316 -3.344027144715
Br 0.2658019664 -0.374267840387 1.728801671242
