12
Coordinates from XML
N 0.235205 1.24571 -2.21903
C -0.101795 0.478715 -3.41803
H 1.2232 1.49971 -2.12903
H 0.100205 0.660715 -1.34303
H -0.343795 2.06771 -2.02703
H 0.536205 -0.409285 -3.43003
H 0.136205 1.10871 -4.27903
C -1.5688 0.111715 -3.39703
H -1.8078 -0.526285 -2.53903
H -1.8338 -0.437285 -4.30603
H -2.2008 1.00471 -3.34403
Br 0.265802 -0.374268 1.7288
