12
Coordinates from XML
N 0.233363841232 1.257220441912 -2.253175550621
C -0.103636158768 0.490220441912 -3.452175550621
H 1.221363841232 1.511220441912 -2.163175550621
H 0.098363841232 0.672220441912 -1.377175550621
H -0.345636158768 2.079220441912 -2.061175550621
H 0.534363841232 -0.397779558088 -3.464175550621
H 0.134363841232 1.120220441912 -4.313175550621
C -1.570636158768 0.123220441912 -3.431175550621
H -1.809636158768 -0.514779558088 -2.573175550621
H -1.835636158768 -0.425779558088 -4.340175550621
H -2.202636158768 1.016220441912 -3.378175550621
Br 0.266876514907 -0.380983768555 1.748734546045
