12
Coordinates from XML
N 0.233364 1.25722 -2.25318
C -0.103636 0.49022 -3.45218
H 1.22136 1.51122 -2.16318
H 0.0983638 0.67222 -1.37718
H -0.345636 2.07922 -2.06118
H 0.534364 -0.39778 -3.46418
H 0.134364 1.12022 -4.31318
C -1.57064 0.12322 -3.43118
H -1.80964 -0.51478 -2.57318
H -1.83564 -0.42578 -4.34018
H -2.20264 1.01622 -3.37818
Br 0.266877 -0.380984 1.74873
