12
Coordinates from XML
N 0.240675 1.21153 -2.11755
C -0.0963249 0.444525 -3.31655
H 1.22868 1.46553 -2.02755
H 0.105675 0.626525 -1.24155
H -0.338325 2.03353 -1.92555
H 0.541675 -0.443475 -3.32855
H 0.141675 1.07453 -4.17755
C -1.56332 0.0775252 -3.29555
H -1.80232 -0.560475 -2.43755
H -1.82832 -0.471475 -4.20455
H -2.19532 0.970525 -3.24255
Br 0.262609 -0.354311 1.66957
