12
Coordinates from XML
N 0.240309 1.21381 -2.12434
C -0.096691 0.446813 -3.32334
H 1.22831 1.46781 -2.03434
H 0.105309 0.628813 -1.24834
H -0.338691 2.03581 -1.93234
H 0.541309 -0.441187 -3.33534
H 0.141309 1.07681 -4.18434
C -1.56369 0.0798132 -3.30234
H -1.80269 -0.558187 -2.44434
H -1.82869 -0.469187 -4.21134
H -2.19569 0.972813 -3.24934
Br 0.262823 -0.355646 1.67353
