12
Coordinates from XML
N 0.239942911103 1.216101255218 -2.131133804513
C -0.097057088897 0.449101255218 -3.330133804513
H 1.227942911103 1.470101255218 -2.041133804513
H 0.104942911103 0.631101255218 -1.255133804513
H -0.339057088897 2.038101255218 -1.939133804513
H 0.540942911103 -0.438898744782 -3.342133804513
H 0.140942911103 1.079101255218 -4.191133804513
C -1.564057088897 0.082101255218 -3.309133804513
H -1.803057088897 -0.555898744782 -2.451133804513
H -1.829057088897 -0.466898744782 -4.218133804513
H -2.196057088897 0.975101255218 -3.256133804513
Br 0.263036225072 -0.35698195709 1.677497169618
