12
Coordinates from XML
N 0.239576826134 1.218389286274 -2.137924680688
C -0.097423173866 0.451389286274 -3.336924680688
H 1.227576826134 1.472389286274 -2.047924680688
H 0.104576826134 0.633389286274 -1.261924680688
H -0.339423173866 2.040389286274 -1.945924680688
H 0.540576826134 -0.436610713726 -3.348924680688
H 0.140576826134 1.081389286274 -4.197924680688
C -1.564423173866 0.084389286274 -3.315924680688
H -1.803423173866 -0.553610713726 -2.457924680688
H -1.829423173866 -0.464610713726 -4.224924680688
H -2.196423173866 0.977389286274 -3.262924680688
Br 0.263249913696 -0.358317510987 1.681461093584
