12
Coordinates from XML
N 0.238844656196 1.222965348386 -2.151506433037
C -0.098155343804 0.455965348386 -3.350506433037
H 1.226844656196 1.476965348386 -2.061506433037
H 0.103844656196 0.637965348386 -1.275506433037
H -0.340155343804 2.044965348386 -1.959506433037
H 0.539844656196 -0.432034651614 -3.362506433037
H 0.139844656196 1.085965348386 -4.211506433037
C -1.565155343804 0.088965348386 -3.329506433037
H -1.804155343804 -0.549034651614 -2.471506433037
H -1.830155343804 -0.460034651614 -4.238506433037
H -2.197155343804 0.981965348386 -3.276506433037
Br 0.263677290943 -0.360988618782 1.689388941518
