12
Coordinates from XML
N 0.238112 1.22754 -2.16509
C -0.0988875 0.460541 -3.36409
H 1.22611 1.48154 -2.07509
H 0.103112 0.642541 -1.28909
H -0.340888 2.04954 -1.97309
H 0.539112 -0.427459 -3.37609
H 0.139112 1.09054 -4.22509
C -1.56589 0.0935414 -3.34309
H -1.80489 -0.544459 -2.48509
H -1.83089 -0.455459 -4.25209
H -2.19789 0.986541 -3.29009
Br 0.264105 -0.36366 1.69732
