12
Coordinates from XML
N 0.237746401289 1.229829441555 -2.17187906156
C -0.099253598711 0.462829441555 -3.37087906156
H 1.225746401289 1.483829441555 -2.08187906156
H 0.102746401289 0.644829441555 -1.29587906156
H -0.341253598711 2.051829441555 -1.97987906156
H 0.538746401289 -0.425170558445 -3.38287906156
H 0.138746401289 1.092829441555 -4.23187906156
C -1.566253598711 0.095829441555 -3.34987906156
H -1.805253598711 -0.542170558445 -2.49187906156
H -1.831253598711 -0.453170558445 -4.25887906156
H -2.198253598711 0.988829441555 -3.29687906156
Br 0.264318356814 -0.364995280473 1.701280713417
