12
Coordinates from XML
N 0.237746 1.22983 -2.17188
C -0.0992536 0.462829 -3.37088
H 1.22575 1.48383 -2.08188
H 0.102746 0.644829 -1.29588
H -0.341254 2.05183 -1.97988
H 0.538746 -0.425171 -3.38288
H 0.138746 1.09283 -4.23188
C -1.56625 0.0958294 -3.34988
H -1.80525 -0.542171 -2.49188
H -1.83125 -0.453171 -4.25888
H -2.19825 0.988829 -3.29688
Br 0.264318 -0.364995 1.70128
