12
Coordinates from XML
N 0.23738031632 1.232117472611 -2.178669937735
C -0.09961968368 0.465117472611 -3.377669937735
H 1.22538031632 1.486117472611 -2.088669937735
H 0.10238031632 0.647117472611 -1.302669937735
H -0.34161968368 2.054117472611 -1.986669937735
H 0.53838031632 -0.422882527389 -3.389669937735
H 0.13838031632 1.095117472611 -4.238669937735
C -1.56661968368 0.098117472611 -3.356669937735
H -1.80561968368 -0.539882527389 -2.498669937735
H -1.83161968368 -0.450882527389 -4.265669937735
H -2.19861968368 0.991117472611 -3.303669937735
Br 0.264532045437 -0.36633083437 1.705244637384
