12
Coordinates from XML
N 0.237014 1.23441 -2.18546
C -0.0999858 0.467406 -3.38446
H 1.22501 1.48841 -2.09546
H 0.102014 0.649406 -1.30946
H -0.341986 2.05641 -1.99346
H 0.538014 -0.420594 -3.39646
H 0.138014 1.09741 -4.24546
C -1.56699 0.100406 -3.36346
H -1.80599 -0.537594 -2.50546
H -1.83199 -0.448594 -4.27246
H -2.19899 0.993406 -3.31046
Br 0.264746 -0.367666 1.70921
