12
Coordinates from XML
N 0.236648146382 1.236693534723 -2.192251690084
C -0.100351853618 0.469693534723 -3.391251690084
H 1.224648146382 1.490693534723 -2.102251690084
H 0.101648146382 0.651693534723 -1.316251690084
H -0.342351853618 2.058693534723 -2.000251690084
H 0.537648146382 -0.418306465277 -3.403251690084
H 0.137648146382 1.099693534723 -4.252251690084
C -1.567351853618 0.102693534723 -3.370251690084
H -1.806351853618 -0.535306465277 -2.512251690084
H -1.832351853618 -0.446306465277 -4.279251690084
H -2.199351853618 0.995693534723 -3.317251690084
Br 0.264959422684 -0.369001942164 1.713172485317
