12
Coordinates from XML
N 0.236282061413 1.238981565779 -2.199042566258
C -0.100717938587 0.471981565779 -3.398042566258
H 1.224282061413 1.492981565779 -2.109042566258
H 0.101282061413 0.653981565779 -1.323042566258
H -0.342717938587 2.060981565779 -2.007042566258
H 0.537282061413 -0.416018434221 -3.410042566258
H 0.137282061413 1.101981565779 -4.259042566258
C -1.567717938587 0.104981565779 -3.377042566258
H -1.806717938587 -0.533018434221 -2.519042566258
H -1.832717938587 -0.444018434221 -4.286042566258
H -2.199717938587 0.997981565779 -3.324042566258
Br 0.265173111308 -0.370337496061 1.717136409283
