12
Coordinates from XML
N 0.23555 1.24356 -2.21262
C -0.10145 0.476558 -3.41162
H 1.22355 1.49756 -2.12262
H 0.10055 0.658558 -1.33662
H -0.34345 2.06556 -2.02062
H 0.53655 -0.411442 -3.42362
H 0.13655 1.10656 -4.27262
C -1.56845 0.109558 -3.39062
H -1.80745 -0.528442 -2.53262
H -1.83345 -0.439442 -4.29962
H -2.20045 1.00256 -3.33762
Br 0.2656 -0.373009 1.72506
