12
Coordinates from XML
N 0.235549891475 1.243557627891 -2.212624318607
C -0.101450108525 0.476557627891 -3.411624318607
H 1.223549891475 1.497557627891 -2.122624318607
H 0.100549891475 0.658557627891 -1.336624318607
H -0.343450108525 2.065557627891 -2.020624318607
H 0.536549891475 -0.411442372109 -3.423624318607
H 0.136549891475 1.106557627891 -4.272624318607
C -1.568450108525 0.109557627891 -3.390624318607
H -1.807450108525 -0.528442372109 -2.532624318607
H -1.833450108525 -0.439442372109 -4.299624318607
H -2.200450108525 1.002557627891 -3.337624318607
Br 0.265600488555 -0.373008603855 1.725064257216
