12
Coordinates from XML
N 0.235184 1.24585 -2.21942
C -0.101816 0.478846 -3.41842
H 1.22318 1.49985 -2.12942
H 0.100184 0.660846 -1.34342
H -0.343816 2.06785 -2.02742
H 0.536184 -0.409154 -3.43042
H 0.136184 1.10885 -4.27942
C -1.56882 0.111846 -3.39742
H -1.80782 -0.526154 -2.53942
H -1.83382 -0.437154 -4.30642
H -2.20082 1.00485 -3.34442
Br 0.265814 -0.374344 1.72903
