12
Coordinates from XML
N 0.234818 1.24813 -2.22621
C -0.102182 0.481134 -3.42521
H 1.22282 1.50213 -2.13621
H 0.0998177 0.663134 -1.35021
H -0.344182 2.07013 -2.03421
H 0.535818 -0.406866 -3.43721
H 0.135818 1.11113 -4.28621
C -1.56918 0.114134 -3.40421
H -1.80818 -0.523866 -2.54621
H -1.83418 -0.434866 -4.31321
H -2.20118 1.00713 -3.35121
Br 0.266028 -0.37568 1.73299
