12
Coordinates from XML
N 0.234451636568 1.25042172106 -2.232996947131
C -0.102548363432 0.48342172106 -3.431996947131
H 1.222451636568 1.50442172106 -2.142996947131
H 0.099451636568 0.66542172106 -1.356996947131
H -0.344548363432 2.07242172106 -2.040996947131
H 0.535451636568 -0.40457827894 -3.443996947131
H 0.135451636568 1.11342172106 -4.292996947131
C -1.569548363432 0.11642172106 -3.410996947131
H -1.808548363432 -0.52157827894 -2.552996947131
H -1.834548363432 -0.43257827894 -4.319996947131
H -2.201548363432 1.00942172106 -3.357996947131
Br 0.266241554425 -0.377015265546 1.736956029116
