12
Coordinates from XML
N 0.234086 1.25271 -2.23979
C -0.102914 0.48571 -3.43879
H 1.22209 1.50671 -2.14979
H 0.0990856 0.66771 -1.36379
H -0.344914 2.07471 -2.04779
H 0.535086 -0.40229 -3.45079
H 0.135086 1.11571 -4.29979
C -1.56991 0.11871 -3.41779
H -1.80891 -0.51929 -2.55979
H -1.83491 -0.43029 -4.32679
H -2.20191 1.01171 -3.36479
Br 0.266455 -0.378351 1.74092
