12
Coordinates from XML
N 0.233353 1.25729 -2.25337
C -0.103647 0.490286 -3.45237
H 1.22135 1.51129 -2.16337
H 0.0983534 0.672286 -1.37737
H -0.345647 2.07929 -2.06137
H 0.534353 -0.397714 -3.46437
H 0.134353 1.12029 -4.31337
C -1.57065 0.123286 -3.43137
H -1.80965 -0.514714 -2.57337
H -1.83565 -0.425714 -4.34037
H -2.20265 1.01629 -3.37837
Br 0.266883 -0.381022 1.74885
