12
Coordinates from XML
N -0.404663 -0.348219 -1.43789
C -0.473124 -0.1431 -2.96901
H -1.2661 -0.768998 -1.08199
H -0.263872 0.546892 -0.963166
H 0.377321 -0.960864 -1.1938
H -1.34319 0.4853 -3.14582
H -0.656937 -1.12797 -3.39263
C 0.812179 0.482623 -3.48522
H 0.992585 1.46885 -3.05475
H 0.731329 0.612966 -4.56412
H 1.68167 -0.150552 -3.30204
Br 0.0170185 0.00881176 1.50087
