12
Coordinates from XML
N -0.404662804288 -0.348219021598 -1.488404400829
C -0.473124343799 -0.143099697179 -3.019528559349
H -1.266098499521 -0.768998238735 -1.132508911069
H -0.263871503844 0.546892177894 -1.013680473898
H 0.377320530606 -0.960864462814 -1.244318887345
H -1.343188994928 0.485300266837 -3.196338326575
H -0.656937333489 -1.127967780383 -3.443146597364
C 0.812179349598 0.482622616287 -3.535734594912
H 0.992584915462 1.468849084077 -3.105264887544
H 0.73132930832 0.612966363012 -4.614629607432
H 1.681673101029 -0.150551915106 -3.352554797718
Br 0.017018520468 0.008811762936 1.53035363236
