12
Coordinates from XML
N -0.404663 -0.348219 -1.53892
C -0.473124 -0.1431 -3.07004
H -1.2661 -0.768998 -1.18302
H -0.263872 0.546892 -1.06419
H 0.377321 -0.960864 -1.29483
H -1.34319 0.4853 -3.24685
H -0.656937 -1.12797 -3.49366
C 0.812179 0.482623 -3.58625
H 0.992585 1.46885 -3.15578
H 0.731329 0.612966 -4.66514
H 1.68167 -0.150552 -3.40307
Br 0.0170185 0.00881176 1.55984
