12
Coordinates from XML
N -0.404663 -0.348219 -1.60206
C -0.473124 -0.1431 -3.13319
H -1.2661 -0.768998 -1.24617
H -0.263872 0.546892 -1.12734
H 0.377321 -0.960864 -1.35798
H -1.34319 0.4853 -3.31
H -0.656937 -1.12797 -3.5568
C 0.812179 0.482623 -3.64939
H 0.992585 1.46885 -3.21892
H 0.731329 0.612966 -4.72829
H 1.68167 -0.150552 -3.46621
Br 0.0170185 0.00881176 1.5967
