12
Coordinates from XML
N -0.404662804288 -0.348219021598 -1.652575541364
C -0.473124343799 -0.143099697179 -3.183699699883
H -1.266098499521 -0.768998238735 -1.296680051604
H -0.263871503844 0.546892177894 -1.177851614432
H 0.377320530606 -0.960864462814 -1.40849002788
H -1.343188994928 0.485300266837 -3.360509467109
H -0.656937333489 -1.127967780383 -3.607317737899
C 0.812179349598 0.482622616287 -3.699905735446
H 0.992584915462 1.468849084077 -3.269436028078
H 0.73132930832 0.612966363012 -4.778800747967
H 1.681673101029 -0.150551915106 -3.516725938252
Br 0.017018520468 0.008811762936 1.626182491826
