12
Coordinates from XML
N -0.404663 -0.348219 -1.70309
C -0.473124 -0.1431 -3.23421
H -1.2661 -0.768998 -1.34719
H -0.263872 0.546892 -1.22837
H 0.377321 -0.960864 -1.459
H -1.34319 0.4853 -3.41102
H -0.656937 -1.12797 -3.65783
C 0.812179 0.482623 -3.75042
H 0.992585 1.46885 -3.31995
H 0.731329 0.612966 -4.82931
H 1.68167 -0.150552 -3.56724
Br 0.0170185 0.00881176 1.65567
