12
Coordinates from XML
N -0.404663 -0.348219 -1.76623
C -0.473124 -0.1431 -3.29736
H -1.2661 -0.768998 -1.41034
H -0.263872 0.546892 -1.29151
H 0.377321 -0.960864 -1.52215
H -1.34319 0.4853 -3.47417
H -0.656937 -1.12797 -3.72097
C 0.812179 0.482623 -3.81356
H 0.992585 1.46885 -3.38309
H 0.731329 0.612966 -4.89246
H 1.68167 -0.150552 -3.63038
Br 0.0170185 0.00881176 1.69253
