12
Coordinates from XML
N -0.404663 -0.348219 -1.81675
C -0.473124 -0.1431 -3.34787
H -1.2661 -0.768998 -1.46085
H -0.263872 0.546892 -1.34202
H 0.377321 -0.960864 -1.57266
H -1.34319 0.4853 -3.52468
H -0.656937 -1.12797 -3.77149
C 0.812179 0.482623 -3.86408
H 0.992585 1.46885 -3.43361
H 0.731329 0.612966 -4.94297
H 1.68167 -0.150552 -3.6809
Br 0.0170185 0.00881176 1.72201
