12
Coordinates from XML
N -0.404663 -0.348219 -1.9304
C -0.473124 -0.1431 -3.46153
H -1.2661 -0.768998 -1.57451
H -0.263872 0.546892 -1.45568
H 0.377321 -0.960864 -1.68632
H -1.34319 0.4853 -3.63834
H -0.656937 -1.12797 -3.88515
C 0.812179 0.482623 -3.97773
H 0.992585 1.46885 -3.54726
H 0.731329 0.612966 -5.05663
H 1.68167 -0.150552 -3.79455
Br 0.0170185 0.00881176 1.78835
