12
Coordinates from XML
N -0.404663 -0.348219 -2.03143
C -0.473124 -0.1431 -3.56256
H -1.2661 -0.768998 -1.67554
H -0.263872 0.546892 -1.55671
H 0.377321 -0.960864 -1.78735
H -1.34319 0.4853 -3.73937
H -0.656937 -1.12797 -3.98617
C 0.812179 0.482623 -4.07876
H 0.992585 1.46885 -3.64829
H 0.731329 0.612966 -5.15766
H 1.68167 -0.150552 -3.89558
Br 0.0170185 0.00881176 1.84733
