12
Coordinates from XML
N -0.404662804288 -0.348219021598 -2.03143201952
C -0.473124343799 -0.143099697179 -3.56255617804
H -1.266098499521 -0.768998238735 -1.67553652976
H -0.263871503844 0.546892177894 -1.556708092589
H 0.377320530606 -0.960864462814 -1.787346506036
H -1.343188994928 0.485300266837 -3.739365945265
H -0.656937333489 -1.127967780383 -3.986174216055
C 0.812179349598 0.482622616287 -4.078762213603
H 0.992584915462 1.468849084077 -3.648292506234
H 0.73132930832 0.612966363012 -5.157657226123
H 1.681673101029 -0.150551915106 -3.895582416409
Br 0.017018520468 0.008811762936 1.84732601367
