12
Coordinates from XML
N -0.404662804288 -0.348219021598 -2.359774300589
C -0.473124343799 -0.143099697179 -3.890898459108
H -1.266098499521 -0.768998238735 -2.003878810829
H -0.263871503844 0.546892177894 -1.885050373658
H 0.377320530606 -0.960864462814 -2.115688787105
H -1.343188994928 0.485300266837 -4.067708226334
H -0.656937333489 -1.127967780383 -4.314516497124
C 0.812179349598 0.482622616287 -4.407104494671
H 0.992584915462 1.468849084077 -3.976634787303
H 0.73132930832 0.612966363012 -5.485999507192
H 1.681673101029 -0.150551915106 -4.223924697478
Br 0.017018520468 0.008811762936 2.038983732601
