12
Coordinates from XML
N -0.404662804288 -0.348219021598 -2.511316891851
C -0.473124343799 -0.143099697179 -4.042441050371
H -1.266098499521 -0.768998238735 -2.155421402092
H -0.263871503844 0.546892177894 -2.03659296492
H 0.377320530606 -0.960864462814 -2.267231378368
H -1.343188994928 0.485300266837 -4.219250817597
H -0.656937333489 -1.127967780383 -4.466059088387
C 0.812179349598 0.482622616287 -4.558647085934
H 0.992584915462 1.468849084077 -4.128177378566
H 0.73132930832 0.612966363012 -5.637542098455
H 1.681673101029 -0.150551915106 -4.37546728874
Br 0.017018520468 0.008811762936 2.127441141338
