12
Coordinates from XML
N -0.555567 -0.0114306 -1.54929
C -0.454893 0.16818 -3.08184
H -1.50196 0.184619 -1.21509
H 0.0915908 0.620795 -1.07192
H -0.313013 -0.969367 -1.28484
H -0.759046 1.1933 -3.2813
H -1.19181 -0.508257 -3.50915
C 0.955599 -0.125763 -3.56569
H 1.69051 0.553936 -3.13163
H 0.992035 0.00937924 -4.64641
H 1.25627 -1.15422 -3.35988
Br 0.0190645 -0.00352995 1.56027
