12
Coordinates from XML
N -0.404662804288 -0.348219021598 -2.675488032386
C -0.473124343799 -0.143099697179 -4.206612190905
H -1.266098499521 -0.768998238735 -2.319592542626
H -0.263871503844 0.546892177894 -2.200764105455
H 0.377320530606 -0.960864462814 -2.431402518902
H -1.343188994928 0.485300266837 -4.383421958131
H -0.656937333489 -1.127967780383 -4.630230228921
C 0.812179349598 0.482622616287 -4.722818226469
H 0.992584915462 1.468849084077 -4.2923485191
H 0.73132930832 0.612966363012 -5.801713238989
H 1.681673101029 -0.150551915106 -4.539638429275
Br 0.017018520468 0.008811762936 2.223270000804
