12
Coordinates from XML
N -0.404663 -0.348219 -2.726
C -0.473124 -0.1431 -4.25713
H -1.2661 -0.768998 -2.37011
H -0.263872 0.546892 -2.25128
H 0.377321 -0.960864 -2.48192
H -1.34319 0.4853 -4.43394
H -0.656937 -1.12797 -4.68074
C 0.812179 0.482623 -4.77333
H 0.992585 1.46885 -4.34286
H 0.731329 0.612966 -5.85223
H 1.68167 -0.150552 -4.59015
Br 0.0170185 0.00881176 2.25276
