12
Coordinates from XML
N -0.404662804288 -0.348219021598 -2.890173370008
C -0.473124343799 -0.143099697179 -4.421297528527
H -1.266098499521 -0.768998238735 -2.534277880248
H -0.263871503844 0.546892177894 -2.415449443077
H 0.377320530606 -0.960864462814 -2.646087856524
H -1.343188994928 0.485300266837 -4.598107295753
H -0.656937333489 -1.127967780383 -4.844915566543
C 0.812179349598 0.482622616287 -4.93750356409
H 0.992584915462 1.468849084077 -4.507033856722
H 0.73132930832 0.612966363012 -6.016398576611
H 1.681673101029 -0.150551915106 -4.754323766897
Br 0.017018520468 0.008811762936 2.348584663182
