12
Coordinates from XML
N -0.404662804288 -0.348219021598 -2.940687567095
C -0.473124343799 -0.143099697179 -4.471811725615
H -1.266098499521 -0.768998238735 -2.584792077335
H -0.263871503844 0.546892177894 -2.465963640164
H 0.377320530606 -0.960864462814 -2.696602053612
H -1.343188994928 0.485300266837 -4.648621492841
H -0.656937333489 -1.127967780383 -4.895429763631
C 0.812179349598 0.482622616287 -4.988017761178
H 0.992584915462 1.468849084077 -4.55754805381
H 0.73132930832 0.612966363012 -6.066912773699
H 1.681673101029 -0.150551915106 -4.804837963984
Br 0.017018520468 0.008811762936 2.378070466094
