12
Coordinates from XML
N -0.404663 -0.348219 -2.94069
C -0.473124 -0.1431 -4.47181
H -1.2661 -0.768998 -2.58479
H -0.263872 0.546892 -2.46596
H 0.377321 -0.960864 -2.6966
H -1.34319 0.4853 -4.64862
H -0.656937 -1.12797 -4.89543
C 0.812179 0.482623 -4.98802
H 0.992585 1.46885 -4.55755
H 0.731329 0.612966 -6.06691
H 1.68167 -0.150552 -4.80484
Br 0.0170185 0.00881176 2.37807
