12
Coordinates from XML
N -0.555566948339 -0.011430637477 -2.231236131951
C -0.454893420213 0.168179501815 -3.763785363474
H -1.501958855105 0.184618698861 -1.897027779638
H 0.091590827054 0.620794545375 -1.753860820006
H -0.31301277171 -0.969366526149 -1.966781192157
H -0.759046477277 1.193298106421 -3.963243304093
H -1.191812877916 -0.508256808528 -4.191088803119
C 0.955599122372 -0.125762503082 -4.247636119444
H 1.690507867582 0.553935784003 -3.813571196106
H 0.992034776553 0.009379243791 -5.328353390928
H 1.256267890121 -1.154218856771 -4.041820595878
Br 0.019064466647 -0.003529950158 1.958326845746
