12
Coordinates from XML
N 0.678101 -0.0986728 -1.84941
C 0.282543 0.45362 -3.23851
H 1.50244 0.381628 -1.48122
H 0.887751 -1.09816 -1.90847
H -0.0893346 0.0236265 -1.18421
H 1.15647 0.318116 -3.8718
H 0.110821 1.51835 -3.09685
C -0.943003 -0.268028 -3.77448
H -0.765617 -1.33582 -3.91179
H -1.19457 0.14403 -4.75145
H -1.8153 -0.131308 -3.13347
Br -0.0172458 -0.00841937 1.69258
