12
Coordinates from XML
N 0.678101 -0.0986728 -2.07672
C 0.282543 0.45362 -3.46583
H 1.50244 0.381628 -1.70854
H 0.887751 -1.09816 -2.13578
H -0.0893346 0.0236265 -1.41152
H 1.15647 0.318116 -4.09912
H 0.110821 1.51835 -3.32416
C -0.943003 -0.268028 -4.0018
H -0.765617 -1.33582 -4.13911
H -1.19457 0.14403 -4.97876
H -1.8153 -0.131308 -3.36079
Br -0.0172458 -0.00841937 1.82526
