12
Coordinates from XML
N 0.678101 -0.0986728 -2.29141
C 0.282543 0.45362 -3.68051
H 1.50244 0.381628 -1.92322
H 0.887751 -1.09816 -2.35047
H -0.0893346 0.0236265 -1.62621
H 1.15647 0.318116 -4.3138
H 0.110821 1.51835 -3.53885
C -0.943003 -0.268028 -4.21648
H -0.765617 -1.33582 -4.35379
H -1.19457 0.14403 -5.19345
H -1.8153 -0.131308 -3.57547
Br -0.0172458 -0.00841937 1.95058
