12
Coordinates from XML
N 0.678101 -0.0986728 -2.40507
C 0.282543 0.45362 -3.79417
H 1.50244 0.381628 -2.03688
H 0.887751 -1.09816 -2.46413
H -0.0893346 0.0236265 -1.73986
H 1.15647 0.318116 -4.42746
H 0.110821 1.51835 -3.6525
C -0.943003 -0.268028 -4.33014
H -0.765617 -1.33582 -4.46745
H -1.19457 0.14403 -5.3071
H -1.8153 -0.131308 -3.68913
Br -0.0172458 -0.00841937 2.01692
