12
Coordinates from XML
N 0.678100827042 -0.098672826391 -2.733407840596
C 0.282542994995 0.453620264718 -4.122511310991
H 1.502442696168 0.381627773636 -2.365223073603
H 0.887750634456 -1.098156628438 -2.792468353936
H -0.089334647496 0.023626452126 -2.06820427064
H 1.156466663922 0.318116220301 -4.755801750319
H 0.110821178285 1.518348944571 -3.980846020293
C -0.943002977297 -0.268028383402 -4.658480496156
H -0.765617455554 -1.335817229766 -4.795791599794
H -1.194574977297 0.144030438872 -5.635445042765
H -1.815298649969 -0.131308100134 -4.017471890392
Br -0.017245792068 -0.008419370355 2.208577122774
