12
Coordinates from XML
N 0.250852 1.14792 -1.92877
C -0.0861478 0.380918 -3.12777
H 1.23885 1.40192 -1.83877
H 0.115852 0.562918 -1.05277
H -0.328148 1.96992 -1.73677
H 0.551852 -0.507082 -3.13977
H 0.151852 1.01092 -3.98877
C -1.55315 0.0139179 -3.10677
H -1.79215 -0.624082 -2.24877
H -1.81815 -0.535082 -4.01577
H -2.18515 0.906918 -3.05377
Br 0.256668 -0.317182 1.55937
