12
Coordinates from XML
N 0.248090916555 1.165176221141 -1.979988303372
C -0.088909083445 0.398176221141 -3.178988303372
H 1.236090916555 1.419176221141 -1.889988303372
H 0.113090916555 0.580176221141 -1.103988303372
H -0.330909083445 1.987176221141 -1.787988303372
H 0.549090916555 -0.489823778859 -3.190988303372
H 0.149090916555 1.028176221141 -4.039988303372
C -1.555909083445 0.031176221141 -3.157988303372
H -1.794909083445 -0.606823778859 -2.299988303372
H -1.820909083445 -0.517823778859 -4.066988303372
H -2.187909083445 0.924176221141 -3.104988303372
Br 0.258280126851 -0.32725634321 1.58927154762
