12
Coordinates from XML
N 0.245329589932 1.182434512535 -2.031210912231
C -0.091670410068 0.415434512535 -3.230210912231
H 1.233329589932 1.436434512535 -1.941210912231
H 0.110329589932 0.597434512535 -1.155210912231
H -0.333670410068 2.004434512535 -1.839210912231
H 0.546329589932 -0.472565487465 -3.242210912231
H 0.146329589932 1.045434512535 -4.091210912231
C -1.558670410068 0.048434512535 -3.209210912231
H -1.797670410068 -0.589565487465 -2.351210912231
H -1.823670410068 -0.500565487465 -4.118210912231
H -2.190670410068 0.941434512535 -3.156210912231
Br 0.259891949612 -0.337330235462 1.619170859825
