12
Coordinates from XML
N 0.243949 1.19106 -2.05682
C -0.0930511 0.424064 -3.25582
H 1.23195 1.44506 -1.96682
H 0.108949 0.606064 -1.18082
H -0.335051 2.01306 -1.86482
H 0.544949 -0.463936 -3.26782
H 0.144949 1.05406 -4.11682
C -1.56005 0.0570637 -3.23482
H -1.79905 -0.580936 -2.37682
H -1.82505 -0.491936 -4.14382
H -2.19205 0.950064 -3.18182
Br 0.260698 -0.342367 1.63412
