12
Coordinates from XML
N 0.242568263309 1.19969280393 -2.08243352109
C -0.094431736691 0.43269280393 -3.28143352109
H 1.230568263309 1.45369280393 -1.99243352109
H 0.107568263309 0.61469280393 -1.20643352109
H -0.336431736691 2.02169280393 -1.89043352109
H 0.543568263309 -0.45530719607 -3.29343352109
H 0.143568263309 1.06269280393 -4.14243352109
C -1.561431736691 0.06569280393 -3.26043352109
H -1.800431736691 -0.57230719607 -2.40243352109
H -1.826431736691 -0.48330719607 -4.16943352109
H -2.193431736691 0.95869280393 -3.20743352109
Br 0.261503772372 -0.347404127714 1.64907017203
