12
Coordinates from XML
N 0.238426273374 1.225580241022 -2.159267434379
C -0.098573726626 0.458580241022 -3.358267434379
H 1.226426273374 1.479580241022 -2.069267434379
H 0.103426273374 0.640580241022 -1.283267434379
H -0.340573726626 2.047580241022 -1.967267434379
H 0.539426273374 -0.429419758978 -3.370267434379
H 0.139426273374 1.088580241022 -4.219267434379
C -1.565573726626 0.091580241022 -3.337267434379
H -1.804573726626 -0.546419758978 -2.479267434379
H -1.830573726626 -0.457419758978 -4.246267434379
H -2.197573726626 0.984580241022 -3.284267434379
Br 0.263921506513 -0.362514966092 1.693919140336
