12
Coordinates from XML
N 0.237046 1.23421 -2.18488
C -0.0999544 0.467209 -3.38388
H 1.22505 1.48821 -2.09488
H 0.102046 0.649209 -1.30888
H -0.341954 2.05621 -1.99288
H 0.538046 -0.420791 -3.39588
H 0.138046 1.09721 -4.24488
C -1.56695 0.100209 -3.36288
H -1.80595 -0.537791 -2.50488
H -1.83195 -0.448791 -4.27188
H -2.19895 0.993209 -3.30988
Br 0.264727 -0.367552 1.70887
