12
Coordinates from XML
N 0.235665 1.24284 -2.21049
C -0.101335 0.475839 -3.40949
H 1.22366 1.49684 -2.12049
H 0.100665 0.657839 -1.33449
H -0.343335 2.06484 -2.01849
H 0.536665 -0.412161 -3.42149
H 0.136665 1.10584 -4.27049
C -1.56834 0.108839 -3.38849
H -1.80734 -0.529161 -2.53049
H -1.83334 -0.440161 -4.29749
H -2.20034 1.00184 -3.33549
Br 0.265533 -0.372589 1.72382
