12
Coordinates from XML
N 0.23428428344 1.251467678114 -2.236101347668
C -0.10271571656 0.484467678114 -3.435101347668
H 1.22228428344 1.505467678114 -2.146101347668
H 0.09928428344 0.666467678114 -1.360101347668
H -0.34471571656 2.073467678114 -2.044101347668
H 0.53528428344 -0.403532321886 -3.447101347668
H 0.13528428344 1.114467678114 -4.296101347668
C -1.56971571656 0.117467678114 -3.414101347668
H -1.80871571656 -0.520532321886 -2.556101347668
H -1.83471571656 -0.431532321886 -4.323101347668
H -2.20171571656 1.010467678114 -3.361101347668
Br 0.266339240653 -0.377625804471 1.738768108643
