12
Coordinates from XML
N 0.234284 1.25147 -2.2361
C -0.102716 0.484468 -3.4351
H 1.22228 1.50547 -2.1461
H 0.0992843 0.666468 -1.3601
H -0.344716 2.07347 -2.0441
H 0.535284 -0.403532 -3.4471
H 0.135284 1.11447 -4.2961
C -1.56972 0.117468 -3.4141
H -1.80872 -0.520532 -2.5561
H -1.83472 -0.431532 -4.3231
H -2.20172 1.01047 -3.3611
Br 0.266339 -0.377626 1.73877
