12
Coordinates from XML
N 0.232904 1.2601 -2.26171
C -0.104096 0.493097 -3.46071
H 1.2209 1.5141 -2.17171
H 0.0979036 0.675097 -1.38571
H -0.346096 2.0821 -2.06971
H 0.533904 -0.394903 -3.47271
H 0.133904 1.1231 -4.32171
C -1.5711 0.126097 -3.43971
H -1.8101 -0.511903 -2.58171
H -1.8361 -0.422903 -4.34871
H -2.2031 1.0191 -3.38671
Br 0.267145 -0.382663 1.75372
