12
Coordinates from XML
N -0.252231654009 -0.547618704909 -3.604164592921
C -0.280116626926 -0.36701691724 -2.068681759732
H -0.771125345275 -1.381816162972 -3.88815780473
H 0.711039303838 -0.639488010003 -3.935944865221
H -0.669069784776 0.263677118323 -4.0672576403
H 0.145167146387 -1.278560269945 -1.654697298666
H -1.331489784359 -0.312003027988 -1.795199485273
C 0.494131153674 0.875275523702 -1.659716560236
H 1.547155330913 0.815489163105 -1.939106352752
H 0.454639376912 0.973141625515 -0.575095292138
H 0.064990985244 1.785858415066 -2.080622396354
Br 0.010280918329 0.01699443206 1.461032359243
