12
Coordinates from XML
N -0.252232 -0.547619 -3.67994
C -0.280117 -0.367017 -2.14445
H -0.771125 -1.38182 -3.96393
H 0.711039 -0.639488 -4.01172
H -0.66907 0.263677 -4.14303
H 0.145167 -1.27856 -1.73047
H -1.33149 -0.312003 -1.87097
C 0.494131 0.875276 -1.73549
H 1.54716 0.815489 -2.01488
H 0.454639 0.973142 -0.650867
H 0.064991 1.78586 -2.15639
Br 0.0102809 0.0169944 1.50526
