12
Coordinates from XML
N -0.252232 -0.547619 -3.90725
C -0.280117 -0.367017 -2.37177
H -0.771125 -1.38182 -4.19124
H 0.711039 -0.639488 -4.23903
H -0.66907 0.263677 -4.37034
H 0.145167 -1.27856 -1.95778
H -1.33149 -0.312003 -2.09828
C 0.494131 0.875276 -1.9628
H 1.54716 0.815489 -2.24219
H 0.454639 0.973142 -0.87818
H 0.064991 1.78586 -2.38371
Br 0.0102809 0.0169944 1.63795
