16
Coordinates from XML
H 0.219699 -1.00003 -3.45129
N -5.20415e-06 -8.45768e-06 -3.43499
H 0.0736492 0.381096 -4.38253
H -0.953334 0.134347 -3.08619
H 0.659987 0.484454 -2.81997
N 0.0477495 0.135121 0.106302
C 0.263963 0.456033 1.56104
H 0.452482 0.872576 -0.494847
H -0.961379 0.0632588 -0.106335
H 0.494951 -0.763718 -0.140352
H -0.203943 1.42831 1.74358
H 1.34461 0.54849 1.70671
C -0.302735 -0.582622 2.54563
H -1.38386 -0.683514 2.42276
H -0.103348 -0.275114 3.57517
H 0.158757 -1.56018 2.38587
