16
Coordinates from XML
H -0.975077664034 0.311907279883 -3.655149334012
N 8.0515336e-05 2.322072e-06 -3.636233137203
H 0.030802954448 -1.023321983946 -3.617622751706
H 0.483713230441 0.340869698342 -4.471970547323
H 0.460788310198 0.370584753478 -2.800191763055
N -0.53016878662 -0.045551849128 0.296071314103
C 0.517684486597 -0.229089814847 1.361114047259
H -0.191939451294 -0.39982800041 -0.614487997122
H -0.767690488226 0.95444554489 0.185132805805
H -1.39410446475 -0.557847580448 0.540828830482
H 1.409132257464 0.308749175553 1.02403782276
H 0.742285116943 -1.299346869527 1.401910148261
C 0.113689824989 0.267405378489 2.760988295856
H -0.106177775769 1.337672217742 2.744045620922
H 0.926577149484 0.097055749538 3.471239586029
H -0.770742824056 -0.264275753872 3.120439485164
