16
Coordinates from XML
H -1.0106 -0.161499 -3.61419
N -5.62272e-06 -0.000116936 -3.57901
H 0.181983 1.00113 -3.46556
H 0.399936 -0.511612 -2.7872
H 0.428556 -0.3285 -4.44909
N 0.0922743 0.851621 2.30706
C 0.128953 -0.499032 1.64344
H 0.340375 0.774134 3.30779
H -0.852206 1.26656 2.23999
H 0.76215 1.49822 1.85771
H -0.574938 -1.13749 2.1861
H 1.14181 -0.890335 1.77971
C -0.226092 -0.49574 0.145675
H -1.23879 -0.116553 -0.0116853
H -0.175116 -1.51049 -0.25674
H 0.471439 0.129914 -0.41657
