16
Coordinates from XML
H -0.662011 0.332444 -3.85464
N 0.000128531 -1.37177e-05 -3.14781
H 0.933569 0.366034 -3.35561
H -0.295955 0.325151 -2.22306
H 0.0248464 -1.02365 -3.15798
N -0.936203 0.122797 2.04652
C 0.0328297 0.497668 0.957282
H -1.57362 0.909599 2.25549
H -0.432681 -0.123936 2.91503
H -1.50889 -0.689789 1.76285
H 0.579314 1.37809 1.3091
H -0.565611 0.775932 0.0843576
C 1.03067 -0.607859 0.568052
H 1.64546 -0.894176 1.42488
H 1.69409 -0.255422 -0.225622
H 0.504775 -1.49425 0.204914
