16
Coordinates from XML
H 0.131330915236 -0.353371139556 -3.654233361218
N 0.000158823816 4.8558156e-05 -2.702149121404
H 0.319237001726 -0.703413634542 -2.029978823171
H 0.542416320739 0.859978658348 -2.579571718044
H -0.992336132661 0.196965834731 -2.544905560159
N -1.198107473025 -0.312365208825 1.204426870188
C 0.006106797702 0.565823954727 0.993120283214
H -2.064081461877 0.25230835048 1.220605743838
H -1.127356872632 -0.820357230852 2.102010937282
H -1.2809992557 -1.008466033095 0.444617282913
H 0.013781156558 1.294265714832 1.809749939331
H -0.150102881408 1.093589037764 0.047275432628
C 1.352784086989 -0.178616840713 0.952681983295
H 1.532644342201 -0.705586994458 1.892922733825
H 2.170810032798 0.528858511554 0.795921428569
H 1.369294006264 -0.905742907913 0.137129287472
