16
Coordinates from XML
H -0.0734321 0.887286 -3.45249
N -6.06365e-05 0.000126841 -2.94639
H 0.843053 0.00737287 -2.36536
H -0.823997 -0.122196 -2.35081
H 0.054127 -0.771868 -3.61694
N 0.454887 -0.999528 0.563155
C -0.0549186 -0.153654 1.6992
H 0.70989 -1.94439 0.896674
H 1.29303 -0.571159 0.135672
H -0.266617 -1.10012 -0.170365
H 0.741876 -0.116442 2.4484
H -0.916526 -0.679248 2.12222
C -0.464049 1.27806 1.30911
H 0.38588 1.82403 0.892409
H -0.821316 1.82129 2.18747
H -1.26622 1.26334 0.567207
