16
Coordinates from XML
H -0.157738237523 -0.904563895371 -2.837899104137
N 4.0155129e-05 -6.1427854e-05 -3.291283339712
H -0.697222764972 0.138560606081 -4.028230557605
H -0.08305491952 0.748546472645 -2.59757618977
H 0.938161134484 0.017122774911 -3.70138323153
N -0.274108012232 0.524218731351 0.191040024255
C 0.315015719151 0.38272982108 1.569050477006
H -0.032787340571 1.442999521536 -0.217169636234
H -1.30443608455 0.446389676066 0.223985448002
H 0.085862312081 -0.212913358549 -0.438082906302
H -0.080943442916 1.20802565686 2.16877826052
H 1.397209213415 0.506747878077 1.463994822173
C 0.014146173128 -0.954796506919 2.26895612328
H -1.062664969538 -1.094057916409 2.392179279209
H 0.476560472512 -0.975382159545 3.258911142577
H 0.409775170337 -1.792800402625 1.689872137965
