16
Coordinates from XML
H -0.157738 -0.904564 -2.8379
N 4.01551e-05 -6.14279e-05 -3.29128
H -0.697223 0.138561 -4.02823
H -0.0830549 0.748546 -2.59758
H 0.938161 0.0171228 -3.70138
N -0.274108 0.524219 0.19104
C 0.315016 0.38273 1.56905
H -0.0327873 1.443 -0.21717
H -1.30444 0.44639 0.223985
H 0.0858623 -0.212913 -0.438083
H -0.0809434 1.20803 2.16878
H 1.39721 0.506748 1.46399
C 0.0141462 -0.954797 2.26896
H -1.06266 -1.09406 2.39218
H 0.47656 -0.975382 3.25891
H 0.409775 -1.7928 1.68987
