16
Coordinates from XML
H 0.044288857127 1.003523013603 -4.108569975485
N 2.9394205e-05 8.417943e-06 -3.909633914803
H 0.919275026658 -0.420936002997 -4.071732994674
H -0.273315586849 -0.14262912917 -2.933168225961
H -0.690126397903 -0.439826210191 -4.525083890442
N -0.190222234526 -0.123131927062 2.756566601098
C 0.483825565093 -0.279304646912 1.419679045654
H 0.348791222142 -0.604217427055 3.49619500045
H -1.14153331688 -0.527237835628 2.735967119224
H -0.268607792492 0.875484098007 3.012222136688
H 0.562360539744 -1.353939973668 1.228468530397
H 1.490185934811 0.138013104569 1.522851855349
C -0.239921844344 0.402599141062 0.244705009013
H -1.245115461623 -0.006985323533 0.118505637206
H 0.313268633572 0.241987461623 -0.683974632828
H -0.320985534651 1.479438966838 0.411904777068
