16
Coordinates from XML
H 0.0442889 1.00352 -4.10857
N 2.93942e-05 8.41794e-06 -3.90963
H 0.919275 -0.420936 -4.07173
H -0.273316 -0.142629 -2.93317
H -0.690126 -0.439826 -4.52508
N -0.190222 -0.123132 2.75657
C 0.483826 -0.279305 1.41968
H 0.348791 -0.604217 3.4962
H -1.14153 -0.527238 2.73597
H -0.268608 0.875484 3.01222
H 0.562361 -1.35394 1.22847
H 1.49019 0.138013 1.52285
C -0.239922 0.402599 0.244705
H -1.24512 -0.00698532 0.118506
H 0.313269 0.241987 -0.683975
H -0.320986 1.47944 0.411905
