16
Coordinates from XML
H -0.437942 0.693247 -2.44794
N -0.000124304 -1.1663e-05 -3.06135
H -0.301664 0.159673 -4.02679
H 1.01845 0.0874836 -3.00299
H -0.27938 -0.940384 -2.76765
N 0.94004 0.0228899 0.379812
C -0.175313 -0.541528 1.21851
H 1.38053 -0.719033 -0.189881
H 1.66926 0.446177 0.977963
H 0.583343 0.752183 -0.260216
H 0.264248 -1.32432 1.84428
H -0.89006 -0.998405 0.527166
C -0.900803 0.483971 2.10811
H -0.205443 0.945866 2.81325
H -1.69246 -0.0058114 2.68052
H -1.35527 1.27076 1.50104
