16
Coordinates from XML
H 0.0985546 1.00978 -3.4164
N 0.000132164 9.13964e-05 -3.27702
H -0.674752 -0.373237 -3.95055
H 0.907542 -0.453661 -3.41582
H -0.330806 -0.182413 -2.32533
N -0.973655 -0.729991 1.01161
C 0.347032 -0.0302407 0.832343
H -1.19813 -1.30526 0.18233
H -1.73581 -0.044298 1.14452
H -0.94948 -1.35074 1.83794
H 0.261588 0.580173 -0.071905
H 1.09713 -0.809463 0.665817
C 0.777225 0.856238 2.01491
H 0.0450575 1.6478 2.19229
H 1.74199 1.32444 1.80451
H 0.877246 0.263363 2.92738
