16
Coordinates from XML
H -0.489483 0.68892 -3.94139
N 7.99419e-05 -0.000130572 -3.36337
H -0.391153 0.00846012 -2.41714
H -0.115185 -0.931973 -3.77194
H 0.996093 0.234138 -3.32305
N -0.596571 0.948678 1.86317
C -0.240368 -0.0597431 0.803831
H -1.36882 1.55738 1.54358
H 0.215844 1.54807 2.0855
H -0.896905 0.47582 2.73205
H 0.0348737 0.50581 -0.0916924
H -1.14853 -0.63406 0.596563
C 0.902817 -1.01942 1.18
H 1.82292 -0.465682 1.38221
H 1.09652 -1.7157 0.360282
H 0.644024 -1.60117 2.0681
