16
Coordinates from XML
H 0.784975594888 -0.633506890504 -4.128553473483
N -6.9959556e-05 -5.1783461e-05 -3.952445254459
H 0.201986099186 0.916124777453 -4.362660695852
H -0.849819086643 -0.38371697718 -4.375854784518
H -0.137345781053 0.100830095537 -2.942729262052
N 0.460064539759 0.398275236659 0.459186176351
C -0.497271227861 -0.248751038453 1.423999069014
H 0.099182392295 0.340581703687 -0.508007943666
H 1.381171792287 -0.07015768705 0.48835336214
H 0.597076912842 1.395814035307 0.693455186069
H -0.620217510511 -1.286678399455 1.099713247917
H -1.45345302614 0.272722691078 1.317502843026
C -0.05339238959 -0.217395548101 2.897551065266
H 0.896511021719 -0.741734687931 3.027365929312
H -0.801374708109 -0.704914616749 3.527717156458
H 0.06663783583 0.811907359725 3.2443065463
