16
Coordinates from XML
H 0.784976 -0.633507 -4.12855
N -6.99596e-05 -5.17835e-05 -3.95245
H 0.201986 0.916125 -4.36266
H -0.849819 -0.383717 -4.37585
H -0.137346 0.10083 -2.94273
N 0.460065 0.398275 0.459186
C -0.497271 -0.248751 1.424
H 0.0991824 0.340582 -0.508008
H 1.38117 -0.0701577 0.488353
H 0.597077 1.39581 0.693455
H -0.620218 -1.28668 1.09971
H -1.45345 0.272723 1.3175
C -0.0533924 -0.217396 2.89755
H 0.896511 -0.741735 3.02737
H -0.801375 -0.704915 3.52772
H 0.0666378 0.811907 3.24431
