16
Coordinates from XML
H -1.019713603502 0.079112776496 -3.301985478719
N 0.000137195654 -7.3015045e-05 -3.348995667813
H 0.256362567309 -0.954533432251 -3.6170193998
H 0.361901354009 0.658566367825 -4.044602630877
H 0.401898869996 0.216569960737 -2.432370571018
N -1.000364444755 0.532597993377 1.83081291361
C -0.171812665717 -0.189548005246 0.802218826214
H -1.971271956386 0.655722236503 1.497334340816
H -0.605747818662 1.467646363557 2.02748767873
H -1.028559952106 0.000676703762 2.716816733647
H -0.211932591198 0.408683476503 -0.11324814464
H -0.661833240961 -1.151013731465 0.62049535155
C 1.296107891801 -0.425393131711 1.200908415541
H 1.806891039724 0.524230616271 1.378151853691
H 1.824038718801 -0.953274682507 0.402853402505
H 1.358683712609 -1.029476462513 2.109356923051
