16
Coordinates from XML
H -0.948736126982 -0.304034272449 -2.967945113921
N -0.000126915594 5.6900723e-05 -3.205105655471
H 0.607415151003 -0.818855165004 -3.298692598588
H -0.017968894906 0.51476632961 -4.090150319649
H 0.358689570891 0.608321014331 -2.463611429517
N 0.985644099886 -0.440115616304 0.630855615391
C -0.100002542464 -0.375066327359 1.671595087336
H 1.564927979593 -1.286857953254 0.759255519702
H 1.603514751633 0.38624825488 0.694709428989
H 0.579967725955 -0.467823958537 -0.319616341851
H 0.39594267506 -0.381388270298 2.647078897121
H -0.692083444091 -1.289514995386 1.567750166554
C -1.023431050343 0.852246516059 1.569859888316
H -0.452206677443 1.77721634493 1.680464837495
H -1.780027992945 0.821923441754 2.357834044751
H -1.536024344334 0.872626404011 0.605005562616
