16
Coordinates from XML
H -0.948736 -0.304034 -2.96795
N -0.000126916 5.69007e-05 -3.20511
H 0.607415 -0.818855 -3.29869
H -0.0179689 0.514766 -4.09015
H 0.35869 0.608321 -2.46361
N 0.985644 -0.440116 0.630856
C -0.100003 -0.375066 1.6716
H 1.56493 -1.28686 0.759256
H 1.60351 0.386248 0.694709
H 0.579968 -0.467824 -0.319616
H 0.395943 -0.381388 2.64708
H -0.692083 -1.28951 1.56775
C -1.02343 0.852247 1.56986
H -0.452207 1.77722 1.68046
H -1.78003 0.821923 2.35783
H -1.53602 0.872626 0.605006
