16
Coordinates from XML
H -0.240916 0.988992 -3.39458
N 3.96883e-05 0.00010405 -3.50691
H 1.01552 -0.0956412 -3.59705
H -0.320937 -0.524519 -2.68819
H -0.453527 -0.368319 -4.34779
N -0.309742 -0.830675 0.496303
C -0.320651 -0.126062 1.82649
H -0.985109 -1.61355 0.491723
H 0.628876 -1.21309 0.292659
H -0.565603 -0.179397 -0.26469
H -0.0747325 -0.876446 2.58413
H -1.34487 0.222635 1.99065
C 0.653183 1.06059 1.93999
H 1.68415 0.731696 1.78822
H 0.58196 1.51403 2.93174
H 0.418906 1.82662 1.19674
