16
Coordinates from XML
H 0.726827044746 0.697429873547 -2.561928155773
N 0.009650146131 -0.02823703649 -2.643356121784
H -0.16647496577 -0.438956767904 -1.722159682064
H -0.854857463669 0.385059217005 -3.003472961271
H 0.332710930954 -0.756958020533 -3.285593457479
N -0.25414371655 1.216306912214 0.88935834402
C -0.027823535567 -0.260127096174 0.489328466388
H -0.477199647152 1.790816739155 0.073286829507
H 0.584406439372 1.599175434267 1.33281565579
H -1.025901358737 1.291742725389 1.556523758594
H 0.778232259244 -0.24970698659 -0.240963381215
H -0.944804969738 -0.578728749217 -0.001428739048
C 0.302829919784 -1.102878485148 1.710164678921
H 1.221837675832 -0.776874904458 2.199694445765
H 0.455652791381 -2.134623086137 1.394429160216
H -0.507803334608 -1.106760518927 2.440467948645
