16
Coordinates from XML
H 0.726827 0.69743 -2.63379
N 0.00965015 -0.028237 -2.71522
H -0.166475 -0.438957 -1.79402
H -0.854857 0.385059 -3.07534
H 0.332711 -0.756958 -3.35746
N -0.254144 1.21631 0.917493
C -0.0278235 -0.260127 0.517463
H -0.4772 1.79082 0.101422
H 0.584406 1.59918 1.36095
H -1.0259 1.29174 1.58466
H 0.778232 -0.249707 -0.212829
H -0.944805 -0.578729 0.026706
C 0.30283 -1.10288 1.7383
H 1.22184 -0.776875 2.22783
H 0.455653 -2.13462 1.42256
H -0.507803 -1.10676 2.4686
