16
Coordinates from XML
H 0.726827044746 0.697429873547 -2.633793427977
N 0.009650146131 -0.02823703649 -2.715221393988
H -0.16647496577 -0.438956767904 -1.794024954268
H -0.854857463669 0.385059217005 -3.075338233474
H 0.332710930954 -0.756958020533 -3.357458729682
N -0.25414371655 1.216306912214 0.917493071816
C -0.027823535567 -0.260127096174 0.517463194184
H -0.477199647152 1.790816739155 0.101421557304
H 0.584406439372 1.599175434267 1.360950383586
H -1.025901358737 1.291742725389 1.58465848639
H 0.778232259244 -0.24970698659 -0.212828653418
H -0.944804969738 -0.578728749217 0.026705988748
C 0.302829919784 -1.102878485148 1.738299406717
H 1.221837675832 -0.776874904458 2.227829173561
H 0.455652791381 -2.134623086137 1.422563888012
H -0.507803334608 -1.106760518927 2.468602676441
