16
Coordinates from XML
H 0.726827 0.69743 -2.84939
N 0.00965015 -0.028237 -2.93082
H -0.166475 -0.438957 -2.00962
H -0.854857 0.385059 -3.29093
H 0.332711 -0.756958 -3.57305
N -0.254144 1.21631 1.0019
C -0.0278235 -0.260127 0.601867
H -0.4772 1.79082 0.185826
H 0.584406 1.59918 1.44535
H -1.0259 1.29174 1.66906
H 0.778232 -0.249707 -0.128424
H -0.944805 -0.578729 0.11111
C 0.30283 -1.10288 1.8227
H 1.22184 -0.776875 2.31223
H 0.455653 -2.13462 1.50697
H -0.507803 -1.10676 2.55301
