16
Coordinates from XML
H 0.726827 0.69743 -3.25183
N 0.00965015 -0.028237 -3.33326
H -0.166475 -0.438957 -2.41207
H -0.854857 0.385059 -3.69338
H 0.332711 -0.756958 -3.9755
N -0.254144 1.21631 1.15945
C -0.0278235 -0.260127 0.759422
H -0.4772 1.79082 0.34338
H 0.584406 1.59918 1.60291
H -1.0259 1.29174 1.82662
H 0.778232 -0.249707 0.02913
H -0.944805 -0.578729 0.268665
C 0.30283 -1.10288 1.98026
H 1.22184 -0.776875 2.46979
H 0.455653 -2.13462 1.66452
H -0.507803 -1.10676 2.71056
