16
Coordinates from XML
H 0.724026 0.152401 -3.78162
N -0.0231289 -0.0321086 -4.45636
H 0.233575 0.361547 -5.36601
H -0.158515 -1.04263 -4.54796
H -0.891866 0.400292 -4.13048
N 0.703132 0.966124 1.36325
C 0.00183982 0.00843529 2.35428
H 1.22623 1.69243 1.85786
H 0.0151957 1.42085 0.757961
H 1.35475 0.449679 0.767357
H -0.641473 0.635094 2.96796
H 0.791808 -0.404183 2.97789
C -0.771752 -1.06556 1.60723
H -1.56069 -0.645567 0.981395
H -1.25222 -1.72175 2.33256
H -0.121815 -1.68864 0.990906
