16
Coordinates from XML
H 0.724025513812 0.152401308674 -3.910974195864
N -0.023128931213 -0.032108555745 -4.58572009403
H 0.233575255844 0.361547016387 -5.495363916767
H -0.158514615306 -1.042628780684 -4.677322114578
H -0.891866067168 0.400291553231 -4.259840863324
N 0.703132494915 0.966123878853 1.413896524238
C 0.001839823015 0.008435289139 2.404917846872
H 1.226232154452 1.692429270985 1.908502862429
H 0.015195685543 1.420845519792 0.808603015179
H 1.354747705691 0.449679480317 0.817999795858
H -0.641472658028 0.63509408638 3.018602219559
H 0.791808236835 -0.404182891042 3.028536914233
C -0.771751598147 -1.065564652777 1.65786824554
H -1.560694145813 -0.645567097296 1.032037044018
H -1.252222135583 -1.721752213438 2.383200319432
H -0.121815019747 -1.688635078814 1.041548606603
