16
Coordinates from XML
H 0.724026 0.152401 -3.91097
N -0.0231289 -0.0321086 -4.58572
H 0.233575 0.361547 -5.49536
H -0.158515 -1.04263 -4.67732
H -0.891866 0.400292 -4.25984
N 0.703132 0.966124 1.4139
C 0.00183982 0.00843529 2.40492
H 1.22623 1.69243 1.9085
H 0.0151957 1.42085 0.808603
H 1.35475 0.449679 0.818
H -0.641473 0.635094 3.0186
H 0.791808 -0.404183 3.02854
C -0.771752 -1.06556 1.65787
H -1.56069 -0.645567 1.03204
H -1.25222 -1.72175 2.3832
H -0.121815 -1.68864 1.04155
