16
Coordinates from XML
H 0.724025513812 0.152401308674 -3.968466413627
N -0.023128931213 -0.032108555745 -4.643212311793
H 0.233575255844 0.361547016387 -5.55285613453
H -0.158514615306 -1.042628780684 -4.734814332341
H -0.891866067168 0.400291553231 -4.317333081087
N 0.703132494915 0.966123878853 1.436404306475
C 0.001839823015 0.008435289139 2.427425629109
H 1.226232154452 1.692429270985 1.931010644666
H 0.015195685543 1.420845519792 0.831110797416
H 1.354747705691 0.449679480317 0.840507578095
H -0.641472658028 0.63509408638 3.041110001796
H 0.791808236835 -0.404182891042 3.05104469647
C -0.771751598147 -1.065564652777 1.680376027777
H -1.560694145813 -0.645567097296 1.054544826255
H -1.252222135583 -1.721752213438 2.405708101669
H -0.121815019747 -1.688635078814 1.06405638884
