16
Coordinates from XML
H 0.724025513812 0.152401308674 -4.097823903594
N -0.023128931213 -0.032108555745 -4.772569801759
H 0.233575255844 0.361547016387 -5.682213624497
H -0.158514615306 -1.042628780684 -4.864171822308
H -0.891866067168 0.400291553231 -4.446690571054
N 0.703132494915 0.966123878853 1.487046816508
C 0.001839823015 0.008435289139 2.478068139142
H 1.226232154452 1.692429270985 1.981653154699
H 0.015195685543 1.420845519792 0.881753307449
H 1.354747705691 0.449679480317 0.891150088128
H -0.641472658028 0.63509408638 3.091752511829
H 0.791808236835 -0.404182891042 3.101687206503
C -0.771751598147 -1.065564652777 1.73101853781
H -1.560694145813 -0.645567097296 1.105187336289
H -1.252222135583 -1.721752213438 2.456350611702
H -0.121815019747 -1.688635078814 1.114698898873
