16
Coordinates from XML
H 0.724025513812 0.152401308674 -4.155316121357
N -0.023128931213 -0.032108555745 -4.830062019522
H 0.233575255844 0.361547016387 -5.73970584226
H -0.158514615306 -1.042628780684 -4.921664040071
H -0.891866067168 0.400291553231 -4.504182788817
N 0.703132494915 0.966123878853 1.509554598745
C 0.001839823015 0.008435289139 2.500575921379
H 1.226232154452 1.692429270985 2.004160936936
H 0.015195685543 1.420845519792 0.904261089686
H 1.354747705691 0.449679480317 0.913657870365
H -0.641472658028 0.63509408638 3.114260294066
H 0.791808236835 -0.404182891042 3.12419498874
C -0.771751598147 -1.065564652777 1.753526320047
H -1.560694145813 -0.645567097296 1.127695118526
H -1.252222135583 -1.721752213438 2.478858393939
H -0.121815019747 -1.688635078814 1.13720668111
