16
Coordinates from XML
H 0.724026 0.152401 -4.22718
N -0.0231289 -0.0321086 -4.90193
H 0.233575 0.361547 -5.81157
H -0.158515 -1.04263 -4.99353
H -0.891866 0.400292 -4.57605
N 0.703132 0.966124 1.53769
C 0.00183982 0.00843529 2.52871
H 1.22623 1.69243 2.0323
H 0.0151957 1.42085 0.932396
H 1.35475 0.449679 0.941793
H -0.641473 0.635094 3.1424
H 0.791808 -0.404183 3.15233
C -0.771752 -1.06556 1.78166
H -1.56069 -0.645567 1.15583
H -1.25222 -1.72175 2.50699
H -0.121815 -1.68864 1.16534
