16
Coordinates from XML
H 0.724025513812 0.152401308674 -4.284673611324
N -0.023128931213 -0.032108555745 -4.959419509489
H 0.233575255844 0.361547016387 -5.869063332227
H -0.158514615306 -1.042628780684 -5.051021530037
H -0.891866067168 0.400291553231 -4.633540278784
N 0.703132494915 0.966123878853 1.560197108778
C 0.001839823015 0.008435289139 2.551218431412
H 1.226232154452 1.692429270985 2.054803446969
H 0.015195685543 1.420845519792 0.954903599719
H 1.354747705691 0.449679480317 0.964300380398
H -0.641472658028 0.63509408638 3.164902804099
H 0.791808236835 -0.404182891042 3.174837498773
C -0.771751598147 -1.065564652777 1.80416883008
H -1.560694145813 -0.645567097296 1.178337628559
H -1.252222135583 -1.721752213438 2.529500903973
H -0.121815019747 -1.688635078814 1.187849191144
