16
Coordinates from XML
H 0.724025513812 0.152401308674 -4.356538883528
N -0.023128931213 -0.032108555745 -5.031284781693
H 0.233575255844 0.361547016387 -5.940928604431
H -0.158514615306 -1.042628780684 -5.122886802241
H -0.891866067168 0.400291553231 -4.705405550987
N 0.703132494915 0.966123878853 1.588331836575
C 0.001839823015 0.008435289139 2.579353159209
H 1.226232154452 1.692429270985 2.082938174765
H 0.015195685543 1.420845519792 0.983038327515
H 1.354747705691 0.449679480317 0.992435108194
H -0.641472658028 0.63509408638 3.193037531896
H 0.791808236835 -0.404182891042 3.202972226569
C -0.771751598147 -1.065564652777 1.832303557876
H -1.560694145813 -0.645567097296 1.206472356355
H -1.252222135583 -1.721752213438 2.557635631769
H -0.121815019747 -1.688635078814 1.21598391894
