16
Coordinates from XML
H 0.724026 0.152401 -4.61525
N -0.0231289 -0.0321086 -5.29
H 0.233575 0.361547 -6.19964
H -0.158515 -1.04263 -5.3816
H -0.891866 0.400292 -4.96412
N 0.703132 0.966124 1.68962
C 0.00183982 0.00843529 2.68064
H 1.22623 1.69243 2.18422
H 0.0151957 1.42085 1.08432
H 1.35475 0.449679 1.09372
H -0.641473 0.635094 3.29432
H 0.791808 -0.404183 3.30426
C -0.771752 -1.06556 1.93359
H -1.56069 -0.645567 1.30776
H -1.25222 -1.72175 2.65892
H -0.121815 -1.68864 1.31727
