16
Coordinates from XML
H 0.724025513812 0.152401308674 -4.672746081225
N -0.023128931213 -0.032108555745 -5.34749197939
H 0.233575255844 0.361547016387 -6.257135802127
H -0.158514615306 -1.042628780684 -5.439093999938
H -0.891866067168 0.400291553231 -5.021612748684
N 0.703132494915 0.966123878853 1.712124638878
C 0.001839823015 0.008435289139 2.703145961512
H 1.226232154452 1.692429270985 2.206730977069
H 0.015195685543 1.420845519792 1.106831129819
H 1.354747705691 0.449679480317 1.116227910498
H -0.641472658028 0.63509408638 3.316830334199
H 0.791808236835 -0.404182891042 3.326765028873
C -0.771751598147 -1.065564652777 1.95609636018
H -1.560694145813 -0.645567097296 1.330265158658
H -1.252222135583 -1.721752213438 2.681428434072
H -0.121815019747 -1.688635078814 1.339776721243
