16
Coordinates from XML
H 0.724026 0.152401 -4.67275
N -0.0231289 -0.0321086 -5.34749
H 0.233575 0.361547 -6.25714
H -0.158515 -1.04263 -5.43909
H -0.891866 0.400292 -5.02161
N 0.703132 0.966124 1.71212
C 0.00183982 0.00843529 2.70315
H 1.22623 1.69243 2.20673
H 0.0151957 1.42085 1.10683
H 1.35475 0.449679 1.11623
H -0.641473 0.635094 3.31683
H 0.791808 -0.404183 3.32677
C -0.771752 -1.06556 1.9561
H -1.56069 -0.645567 1.33027
H -1.25222 -1.72175 2.68143
H -0.121815 -1.68864 1.33978
