16
Coordinates from XML
H 0.724026 0.152401 -4.74461
N -0.0231289 -0.0321086 -5.41936
H 0.233575 0.361547 -6.329
H -0.158515 -1.04263 -5.51096
H -0.891866 0.400292 -5.09348
N 0.703132 0.966124 1.74026
C 0.00183982 0.00843529 2.73128
H 1.22623 1.69243 2.23487
H 0.0151957 1.42085 1.13497
H 1.35475 0.449679 1.14436
H -0.641473 0.635094 3.34497
H 0.791808 -0.404183 3.3549
C -0.771752 -1.06556 1.98423
H -1.56069 -0.645567 1.3584
H -1.25222 -1.72175 2.70956
H -0.121815 -1.68864 1.36791
