16
Coordinates from XML
H 0.724025513812 0.152401308674 -4.744611353428
N -0.023128931213 -0.032108555745 -5.419357251594
H 0.233575255844 0.361547016387 -6.329001074331
H -0.158514615306 -1.042628780684 -5.510959272142
H -0.891866067168 0.400291553231 -5.093478020888
N 0.703132494915 0.966123878853 1.740259366674
C 0.001839823015 0.008435289139 2.731280689308
H 1.226232154452 1.692429270985 2.234865704865
H 0.015195685543 1.420845519792 1.134965857615
H 1.354747705691 0.449679480317 1.144362638294
H -0.641472658028 0.63509408638 3.344965061995
H 0.791808236835 -0.404182891042 3.354899756669
C -0.771751598147 -1.065564652777 1.984231087976
H -1.560694145813 -0.645567097296 1.358399886455
H -1.252222135583 -1.721752213438 2.709563161868
H -0.121815019747 -1.688635078814 1.367911449039
