16
Coordinates from XML
H -0.450915 0.955988 -2.59334
N -0.0243051 0.0274731 -2.65191
H 0.173953 -0.195911 -3.63125
H 0.848173 0.0182592 -2.11659
H -0.668166 -0.668954 -2.2668
N 0.442535 -0.227871 -0.102758
C 0.217714 -0.445441 1.41158
H 1.0437 -0.955727 -0.495974
H 0.883281 0.679593 -0.272053
H -0.449875 -0.242969 -0.602544
H 1.20818 -0.450266 1.86115
H -0.218437 -1.43729 1.50755
C -0.67658 0.642205 1.98365
H -0.235206 1.63485 1.88199
H -0.814757 0.4597 3.04908
H -1.66732 0.644299 1.52658
