16
Coordinates from XML
H -0.450914764947 0.955988174513 -2.622088493376
N -0.024305115683 0.027473092851 -2.680651554772
H 0.173953401874 -0.19591076612 -3.65999155964
H 0.848173480942 0.018259192932 -2.145331518611
H -0.668166295734 -0.668954124357 -2.295549944034
N 0.442535180583 -0.227870995062 -0.091504554485
C 0.217713597474 -0.445441433213 1.422833739508
H 1.043697130521 -0.955727023151 -0.484719659166
H 0.88328098981 0.679593397426 -0.260798867894
H -0.449875348393 -0.242968849523 -0.591290121653
H 1.208177973686 -0.450265902649 1.87240881628
H -0.218437123416 -1.437291934862 1.518801075992
C -0.676579813782 0.642204670523 1.994907088471
H -0.235206084028 1.634850625608 1.893239879098
H -0.814756512225 0.459700371145 3.060336602913
H -1.667320436035 0.644299327357 1.53783724598
