16
Coordinates from XML
H -0.450914764947 0.955988174513 -2.923922636632
N -0.024305115683 0.027473092851 -2.982485698028
H 0.173953401874 -0.19591076612 -3.961825702896
H 0.848173480942 0.018259192932 -2.447165661867
H -0.668166295734 -0.668954124357 -2.59738408729
N 0.442535180583 -0.227870995062 0.026661302259
C 0.217713597474 -0.445441433213 1.540999596252
H 1.043697130521 -0.955727023151 -0.366553802422
H 0.88328098981 0.679593397426 -0.14263301115
H -0.449875348393 -0.242968849523 -0.473124264909
H 1.208177973686 -0.450265902649 1.990574673024
H -0.218437123416 -1.437291934862 1.636966932736
C -0.676579813782 0.642204670523 2.113072945215
H -0.235206084028 1.634850625608 2.011405735842
H -0.814756512225 0.459700371145 3.178502459657
H -1.667320436035 0.644299327357 1.656003102724
