16
Coordinates from XML
H -0.615697 0.382421 -3.26529
N -0.0185389 -0.0364128 -2.54727
H 0.252318 -0.980447 -2.83667
H 0.820733 0.536639 -2.42437
H -0.531139 -0.0847763 -1.66253
N 0.343743 0.657061 -0.00777857
C 0.160942 0.333715 1.49327
H 0.800282 1.56278 -0.138314
H -0.562788 0.682584 -0.481021
H 0.915764 -0.0597963 -0.460898
H -0.423488 1.1537 1.90464
H 1.15852 0.359179 1.92615
C -0.51832 -1.0139 1.67368
H -1.51718 -1.03423 1.2351
H -0.631416 -1.21088 2.73949
H 0.0708273 -1.83188 1.2562
