16
Coordinates from XML
H -0.615697007395 0.382421188743 -3.30840881901
N -0.018538853789 -0.036412773661 -2.590393545219
H 0.252318054623 -0.980446837903 -2.879789215686
H 0.82073323167 0.536638589034 -2.467487723878
H -0.531139184556 -0.084776338613 -1.705648833385
N 0.34374314419 0.657060911167 0.009102268827
C 0.1609416965 0.33371539 1.510146376476
H 0.80028157102 1.56277681632 -0.121433435895
H -0.562788221729 0.682583943611 -0.464140284159
H 0.915764465404 -0.059796291107 -0.444017439652
H -0.423488005921 1.153701459514 1.921516616572
H 1.158523846438 0.359179439665 1.943027462832
C -0.518319822796 -1.01389575604 1.690564381272
H -1.517182316664 -1.034233813413 1.251983642193
H -0.631415930772 -1.210882482801 2.756372135686
H 0.070827303549 -1.831877196192 1.273076374056
