16
Coordinates from XML
H -0.615697 0.382421 -3.43777
N -0.0185389 -0.0364128 -2.71975
H 0.252318 -0.980447 -3.00915
H 0.820733 0.536639 -2.59685
H -0.531139 -0.0847763 -1.83501
N 0.343743 0.657061 0.0597448
C 0.160942 0.333715 1.56079
H 0.800282 1.56278 -0.0707909
H -0.562788 0.682584 -0.413498
H 0.915764 -0.0597963 -0.393375
H -0.423488 1.1537 1.97216
H 1.15852 0.359179 1.99367
C -0.51832 -1.0139 1.74121
H -1.51718 -1.03423 1.30263
H -0.631416 -1.21088 2.80701
H 0.0708273 -1.83188 1.32372
