16
Coordinates from XML
H -0.615697007395 0.382421188743 -3.437766308977
N -0.018538853789 -0.036412773661 -2.719751035186
H 0.252318054623 -0.980446837903 -3.009146705652
H 0.82073323167 0.536638589034 -2.596845213845
H -0.531139184556 -0.084776338613 -1.835006323352
N 0.34374314419 0.657060911167 0.059744778861
C 0.1609416965 0.33371539 1.56078888651
H 0.80028157102 1.56277681632 -0.070790925862
H -0.562788221729 0.682583943611 -0.413497774126
H 0.915764465404 -0.059796291107 -0.393374929619
H -0.423488005921 1.153701459514 1.972159126605
H 1.158523846438 0.359179439665 1.993669972865
C -0.518319822796 -1.01389575604 1.741206891305
H -1.517182316664 -1.034233813413 1.302626152226
H -0.631415930772 -1.210882482801 2.807014645719
H 0.070827303549 -1.831877196192 1.32371888409
