16
Coordinates from XML
H -0.615697 0.382421 -3.48089
N -0.0185389 -0.0364128 -2.76287
H 0.252318 -0.980447 -3.05227
H 0.820733 0.536639 -2.63996
H -0.531139 -0.0847763 -1.87813
N 0.343743 0.657061 0.0766256
C 0.160942 0.333715 1.57767
H 0.800282 1.56278 -0.0539101
H -0.562788 0.682584 -0.396617
H 0.915764 -0.0597963 -0.376494
H -0.423488 1.1537 1.98904
H 1.15852 0.359179 2.01055
C -0.51832 -1.0139 1.75809
H -1.51718 -1.03423 1.31951
H -0.631416 -1.21088 2.8239
H 0.0708273 -1.83188 1.3406
