16
Coordinates from XML
H -0.615697007395 0.382421188743 -3.524004635621
N -0.018538853789 -0.036412773661 -2.805989361831
H 0.252318054623 -0.980446837903 -3.095385032297
H 0.82073323167 0.536638589034 -2.68308354049
H -0.531139184556 -0.084776338613 -1.921244649996
N 0.34374314419 0.657060911167 0.093506452216
C 0.1609416965 0.33371539 1.594550559865
H 0.80028157102 1.56277681632 -0.037029252506
H -0.562788221729 0.682583943611 -0.379736100771
H 0.915764465404 -0.059796291107 -0.359613256264
H -0.423488005921 1.153701459514 2.00592079996
H 1.158523846438 0.359179439665 2.027431646221
C -0.518319822796 -1.01389575604 1.774968564661
H -1.517182316664 -1.034233813413 1.336387825581
H -0.631415930772 -1.210882482801 2.840776319074
H 0.070827303549 -1.831877196192 1.357480557445
