16
Coordinates from XML
H -0.615697 0.382421 -3.524
N -0.0185389 -0.0364128 -2.80599
H 0.252318 -0.980447 -3.09539
H 0.820733 0.536639 -2.68308
H -0.531139 -0.0847763 -1.92124
N 0.343743 0.657061 0.0935065
C 0.160942 0.333715 1.59455
H 0.800282 1.56278 -0.0370293
H -0.562788 0.682584 -0.379736
H 0.915764 -0.0597963 -0.359613
H -0.423488 1.1537 2.00592
H 1.15852 0.359179 2.02743
C -0.51832 -1.0139 1.77497
H -1.51718 -1.03423 1.33639
H -0.631416 -1.21088 2.84078
H 0.0708273 -1.83188 1.35748
