16
Coordinates from XML
H -0.615697 0.382421 -3.56712
N -0.0185389 -0.0364128 -2.84911
H 0.252318 -0.980447 -3.1385
H 0.820733 0.536639 -2.7262
H -0.531139 -0.0847763 -1.96436
N 0.343743 0.657061 0.110387
C 0.160942 0.333715 1.61143
H 0.800282 1.56278 -0.0201484
H -0.562788 0.682584 -0.362855
H 0.915764 -0.0597963 -0.342732
H -0.423488 1.1537 2.0228
H 1.15852 0.359179 2.04431
C -0.51832 -1.0139 1.79185
H -1.51718 -1.03423 1.35327
H -0.631416 -1.21088 2.85766
H 0.0708273 -1.83188 1.37436
