16
Coordinates from XML
H -0.615697 0.382421 -3.61024
N -0.0185389 -0.0364128 -2.89223
H 0.252318 -0.980447 -3.18162
H 0.820733 0.536639 -2.76932
H -0.531139 -0.0847763 -2.00748
N 0.343743 0.657061 0.127268
C 0.160942 0.333715 1.62831
H 0.800282 1.56278 -0.00326758
H -0.562788 0.682584 -0.345974
H 0.915764 -0.0597963 -0.325852
H -0.423488 1.1537 2.03968
H 1.15852 0.359179 2.06119
C -0.51832 -1.0139 1.80873
H -1.51718 -1.03423 1.37015
H -0.631416 -1.21088 2.87454
H 0.0708273 -1.83188 1.39124
