16
Coordinates from XML
H -0.615697007395 0.382421188743 -3.653362125588
N -0.018538853789 -0.036412773661 -2.935346851797
H 0.252318054623 -0.980446837903 -3.224742522264
H 0.82073323167 0.536638589034 -2.812441030457
H -0.531139184556 -0.084776338613 -2.050602139963
N 0.34374314419 0.657060911167 0.144148962249
C 0.1609416965 0.33371539 1.645193069898
H 0.80028157102 1.56277681632 0.013613257527
H -0.562788221729 0.682583943611 -0.329093590737
H 0.915764465404 -0.059796291107 -0.30897074623
H -0.423488005921 1.153701459514 2.056563309993
H 1.158523846438 0.359179439665 2.078074156254
C -0.518319822796 -1.01389575604 1.825611074694
H -1.517182316664 -1.034233813413 1.387030335614
H -0.631415930772 -1.210882482801 2.891418829107
H 0.070827303549 -1.831877196192 1.408123067478
