16
Coordinates from XML
H -0.615697 0.382421 -3.65336
N -0.0185389 -0.0364128 -2.93535
H 0.252318 -0.980447 -3.22474
H 0.820733 0.536639 -2.81244
H -0.531139 -0.0847763 -2.0506
N 0.343743 0.657061 0.144149
C 0.160942 0.333715 1.64519
H 0.800282 1.56278 0.0136133
H -0.562788 0.682584 -0.329094
H 0.915764 -0.0597963 -0.308971
H -0.423488 1.1537 2.05656
H 1.15852 0.359179 2.07807
C -0.51832 -1.0139 1.82561
H -1.51718 -1.03423 1.38703
H -0.631416 -1.21088 2.89142
H 0.0708273 -1.83188 1.40812
