16
Coordinates from XML
H -0.615697007395 0.382421188743 -3.68210823447
N -0.018538853789 -0.036412773661 -2.964092960679
H 0.252318054623 -0.980446837903 -3.253488631145
H 0.82073323167 0.536638589034 -2.841187139338
H -0.531139184556 -0.084776338613 -2.079348248845
N 0.34374314419 0.657060911167 0.155402853368
C 0.1609416965 0.33371539 1.656446961017
H 0.80028157102 1.56277681632 0.024867148645
H -0.562788221729 0.682583943611 -0.317839699619
H 0.915764465404 -0.059796291107 -0.297716855112
H -0.423488005921 1.153701459514 2.067817201112
H 1.158523846438 0.359179439665 2.089328047372
C -0.518319822796 -1.01389575604 1.836864965812
H -1.517182316664 -1.034233813413 1.398284226733
H -0.631415930772 -1.210882482801 2.902672720226
H 0.070827303549 -1.831877196192 1.419376958597
