16
Coordinates from XML
H -0.615697 0.382421 -3.68211
N -0.0185389 -0.0364128 -2.96409
H 0.252318 -0.980447 -3.25349
H 0.820733 0.536639 -2.84119
H -0.531139 -0.0847763 -2.07935
N 0.343743 0.657061 0.155403
C 0.160942 0.333715 1.65645
H 0.800282 1.56278 0.0248671
H -0.562788 0.682584 -0.31784
H 0.915764 -0.0597963 -0.297717
H -0.423488 1.1537 2.06782
H 1.15852 0.359179 2.08933
C -0.51832 -1.0139 1.83686
H -1.51718 -1.03423 1.39828
H -0.631416 -1.21088 2.90267
H 0.0708273 -1.83188 1.41938
