16
Coordinates from XML
H -0.45713 0.0452049 -3.54951
N -0.0336618 -0.000572611 -2.61884
H 0.686688 -0.728082 -2.60702
H 0.390417 0.903049 -2.39191
H -0.754183 -0.222728 -1.92648
N 0.302884 0.0717963 -0.177834
C 0.529027 -0.0390161 1.34784
H 1.19129 0.0761243 -0.684288
H -0.20002 0.93363 -0.403089
H -0.255606 -0.71625 -0.514704
H 1.15397 0.809351 1.61779
H 1.09433 -0.956061 1.49841
C -0.798057 -0.0442687 2.08867
H -1.36168 0.876683 1.93159
H -0.603624 -0.123443 3.158
H -1.42183 -0.895427 1.81133
