16
Coordinates from XML
H -0.457130243151 0.045204907451 -3.664495140828
N -0.033661847709 -0.000572610503 -2.733826231499
H 0.686688491861 -0.72808162495 -2.722008636659
H 0.390417107458 0.903049094979 -2.506898507759
H -0.754183153679 -0.222727819256 -2.041462562967
N 0.302883963409 0.071796294662 -0.132818592875
C 0.529027237342 -0.039016103467 1.392855664796
H 1.191294932504 0.0761243089 -0.639272366196
H -0.200020477629 0.933629532932 -0.358073224649
H -0.255606481347 -0.716250383516 -0.469687954374
H 1.153973502715 0.809351357561 1.66281033168
H 1.094325866484 -0.956060527292 1.543426522687
C -0.798056987421 -0.044268725696 2.133681244353
H -1.361677883298 0.876682672583 1.976604859547
H -0.603623919875 -0.123443203515 3.203011807759
H -1.421832972369 -0.895426938162 1.856341331906
