16
Coordinates from XML
H -0.45713 0.0452049 -3.6645
N -0.0336618 -0.000572611 -2.73383
H 0.686688 -0.728082 -2.72201
H 0.390417 0.903049 -2.5069
H -0.754183 -0.222728 -2.04146
N 0.302884 0.0717963 -0.132819
C 0.529027 -0.0390161 1.39286
H 1.19129 0.0761243 -0.639272
H -0.20002 0.93363 -0.358073
H -0.255606 -0.71625 -0.469688
H 1.15397 0.809351 1.66281
H 1.09433 -0.956061 1.54343
C -0.798057 -0.0442687 2.13368
H -1.36168 0.876683 1.9766
H -0.603624 -0.123443 3.20301
H -1.42183 -0.895427 1.85634
