16
Coordinates from XML
H -0.45713 0.0452049 -3.79385
N -0.0336618 -0.000572611 -2.86318
H 0.686688 -0.728082 -2.85137
H 0.390417 0.903049 -2.63626
H -0.754183 -0.222728 -2.17082
N 0.302884 0.0717963 -0.0821761
C 0.529027 -0.0390161 1.4435
H 1.19129 0.0761243 -0.58863
H -0.20002 0.93363 -0.307431
H -0.255606 -0.71625 -0.419045
H 1.15397 0.809351 1.71345
H 1.09433 -0.956061 1.59407
C -0.798057 -0.0442687 2.18432
H -1.36168 0.876683 2.02725
H -0.603624 -0.123443 3.25365
H -1.42183 -0.895427 1.90698
