9
Coordinates from XML
N -0.543435542537 0.36401253521 -2.22635333459
C 0.622256055367 -0.416793004942 -1.769311206289
H -0.255473101159 1.262306373056 -2.636089290109
H -1.184699288305 0.569874175573 -1.448997686646
H -1.07833838688 -0.145340264624 -2.942145044806
H 1.145176673801 0.174288779656 -1.015147510045
H 1.260686919849 -0.601723027451 -2.635318093129
H 0.252288097166 -1.353136951398 -1.347224362335
Na 8.5335578e-05 -5.715791e-05 2.806750323478
