9
Coordinates from XML
N 0.609656729354 0.230111974332 -2.785077735579
C -0.698076535873 -0.263489186057 -2.312242350395
H 0.612993802388 0.364880041985 -3.804667933593
H 1.364165806797 -0.430920674839 -2.557851199307
H 0.848204358995 1.132438359098 -2.35284952763
H -0.892461886344 -1.218228468121 -2.804455483913
H -1.452394208145 0.478096422008 -2.582087945519
H -0.637230495661 -0.385377175373 -1.22909201113
Na -9.5733298e-05 -3.6134707e-05 3.575395931042
