9
Coordinates from XML
N 0.020599112302 0.307211330062 -3.213215205328
C -0.023589646642 -0.351777237645 -1.893683803195
H -0.516834354096 -0.22024775232 -3.913707835987
H 0.985630030472 0.387595280664 -3.559818375339
H -0.373255467669 1.256448007345 -3.171413287469
H 0.405971599525 -1.349218768608 -2.004019917414
H -1.068560707242 -0.406553239058 -1.582563115715
H 0.561789297236 0.253126426416 -1.198560339866
Na -3.235176e-06 -4.8242694e-05 3.622042426649
