9
Coordinates from XML
N 0.143525892221 -0.672295178117 -1.86256370789
C -0.164327838653 0.769799379315 -1.917071210236
H 1.073917092314 -0.841860353315 -1.458388490749
H 0.1322575927 -1.093611573306 -2.800777718961
H -0.541151392593 -1.180156476527 -1.287052615696
H 0.593676955802 1.249789484535 -2.538862783413
H -0.136940390136 1.15595652919 -0.896339319256
H -1.158821399314 0.882709578244 -2.352969621317
Na -2.2535133e-05 0.000105569266 2.63202095423
