8
Coordinates from XML
C -0.374285820941 -1.323049978643 -2.35124517909
C 0.027881455669 0.102134375232 -1.832252133718
O -0.216486485647 0.353574329104 -0.589721553846
O 0.564182811029 0.875861212071 -2.719204068188
H -0.807208376282 -1.928782377157 -1.545793023371
H -1.100094891276 -1.218439674753 -3.171454507703
H 0.514518621575 -1.82465544536 -2.761808766444
Cl -2.3947713e-05 -8.4265604e-05 3.164688636516
