8
Coordinates from XML
C -1.212321834916 -0.804511173899 -1.484362508393
C 0.095164769299 0.062889005796 -1.502759522141
O 0.654580553631 0.238525137443 -2.652988157049
O 0.471863367036 0.508784971238 -0.348536384991
H -1.480821093784 -1.135268496972 -2.49510213555
H -1.058235653245 -1.678374986007 -0.833897327533
H -2.033954417283 -0.214566768017 -1.051893621534
Cl -7.7052095e-05 -5.1167582e-05 2.524239718751
