8
Coordinates from XML
C -0.670004413596 0.902320586163 -0.846975988703
C 0.047457986099 -0.071108313445 -1.846939300271
O -0.685318663493 -0.585008139735 -2.777404416982
O 1.308227894645 -0.253441061276 -1.622952464408
H -1.729447314244 1.022221320273 -1.104447165557
H -0.576465810916 0.505514806139 0.174924773481
H -0.166059058824 1.879970207727 -0.86657541213
Cl -4.3106707e-05 5.7318562e-05 2.988959041895
