8
Coordinates from XML
C 0.1888733792 -1.230710978306 -1.122440592452
C -0.015837786745 0.099553193792 -1.929121020516
O -0.402015786916 1.129909433474 -1.253804387673
O 0.22644195378 0.013192315147 -3.196716548213
H -0.018582205957 -1.081403093322 -0.055784045876
H -0.477848938956 -2.006420052141 -1.527708711416
H 1.222197372766 -1.582825260047 -1.258090500127
Cl 1.1895987e-05 -7.7928685e-05 3.164766699157
