8
Coordinates from XML
C 0.317420123829 1.4183636275 -1.829920001702
C -0.026120537552 -0.111254699008 -1.896929935598
O -0.265500335114 -0.698369486394 -0.77229065031
O -0.029103619201 -0.619445158112 -3.086337205782
H 0.286847622962 1.784874283399 -0.796565215587
H 1.318382829534 1.583856858369 -2.255562007771
H -0.398802222625 1.979293220126 -2.448407983069
Cl 2.0060449e-05 9.0158992e-05 3.202398444255
