8
Coordinates from XML
C 0.725145949722 1.170909971469 -2.471070744556
C -0.059461682474 -0.088471352595 -1.960588339227
O -0.740122354547 0.057746541821 -0.873325096076
O 0.066798948984 -1.145976909223 -2.69454770221
H 0.561225394302 2.032063415089 -1.811804750637
H 1.798729968624 0.934749226524 -2.517232654306
H 0.398396665205 1.41318748487 -3.493166802716
Cl 4.58395e-05 7.4769908e-05 3.378181837118
