8
Coordinates from XML
C -0.056404339481 -1.4345139684 -1.668234635885
C -0.001153484308 0.112318797469 -1.926107626885
O -0.980200562939 0.620473502442 -2.596976911247
O 1.033213389024 0.712288915765 -1.433079104007
H -0.964217219381 -1.874306106834 -2.098984566525
H 0.833541049855 -1.90741011229 -2.109654964028
H -0.025200850306 -1.62387443022 -0.585038994137
Cl -4.145946e-06 -9.1208764e-05 3.214966738123
