8
Coordinates from XML
C -0.523408306302 -0.500611382565 -0.680303429696
C 0.035353310009 0.040237763399 -2.04320856194
O -0.835494690144 0.30808066102 -2.957923777668
O 1.322317078895 0.15675205676 -2.098929050846
H -1.618546186854 -0.559282134419 -0.698125274235
H -0.09904808512 -1.496628677338 -0.484463147328
H -0.196268673129 0.161369039613 0.135113900019
Cl -3.3847354e-05 -3.1730543e-05 3.277823988715
