8
Coordinates from XML
C -1.128327541543 0.816322316457 -1.379454771269
C 0.087899188224 -0.061906776065 -1.83961663942
O 0.343391526776 -0.075443540834 -3.105065336129
O 0.704847372317 -0.683333256565 -0.887692186879
H -1.593362582442 1.324725854675 -2.232892001385
H -1.868621616075 0.175505228651 -0.877654404397
H -0.783634755974 1.557602987482 -0.643361237212
Cl -7.1789385e-05 5.2100194e-05 3.039160468408
