12
Coordinates from XML
N 0.610499020753 -1.076777499522 -2.312742618497
C -0.016867046264 0.091955577239 -1.601073099871
H 1.032358581767 -1.73388465909 -1.635045322114
H 1.352974621372 -0.756962975867 -2.95707743235
H -0.096404014837 -1.591589455869 -2.864099818484
H 0.7754941199 0.568433117076 -1.015664503004
H -0.76561724645 -0.319685357998 -0.917344494168
C -0.676269534492 1.134273064394 -2.522012669001
H 0.057557883472 1.565023842127 -3.207615331938
H -1.105726372361 1.944947573088 -1.928181582781
H -1.477693605986 0.68014595966 -3.10988946313
K -6.1371068e-05 0.000108670577 2.557134728713
