12
Coordinates from XML
N -0.82883961456 0.592377885795 -3.05585375532
C -0.045477698076 0.236180027589 -1.820756235238
H -1.497412350164 1.355663263557 -2.857271623187
H -1.363237943555 -0.223732951287 -3.398052859592
H -0.197164551674 0.905364722332 -3.812004447433
H -0.773564140883 -0.05286708324 -1.056614763767
H 0.466227179447 1.147926211257 -1.49758918403
C 0.982536861931 -0.894060892349 -2.008129132987
H 0.490135319702 -1.817588606265 -2.32235390308
H 1.505386163826 -1.088587176213 -1.068421824303
H 1.725211773573 -0.621372661276 -2.7619104003
K 8.2861923e-05 -5.7856588e-05 2.763061019702
