12
Coordinates from XML
N -0.82884 0.592378 -3.05585
C -0.0454777 0.23618 -1.82076
H -1.49741 1.35566 -2.85727
H -1.36324 -0.223733 -3.39805
H -0.197165 0.905365 -3.812
H -0.773564 -0.0528671 -1.05661
H 0.466227 1.14793 -1.49759
C 0.982537 -0.894061 -2.00813
H 0.490135 -1.81759 -2.32235
H 1.50539 -1.08859 -1.06842
H 1.72521 -0.621373 -2.76191
K 8.28619e-05 -5.78566e-05 2.76306
