12
Coordinates from XML
N -0.25540513424 1.197607397229 -3.030031693101
C 0.427805894016 -0.138837170607 -3.144649747834
H 0.157457281573 1.877149668277 -3.690937027749
H -0.157642572154 1.577529034568 -2.07356907996
H -1.263517919823 1.112446906956 -3.242621242566
H 1.489537608531 0.029937476945 -2.940171940637
H 0.312987689205 -0.464056890068 -4.183210695501
C -0.11324836729 -1.227096674621 -2.200023571114
H 0.000666098655 -0.925534575469 -1.155904938915
H 0.434342124658 -2.161294435153 -2.347267895098
H -1.171626691537 -1.417531393106 -2.394139607183
K 2.8509072e-05 -0.000121107658 3.304768471004
