12
Coordinates from XML
N -1.03377 0.654686 -3.40128
C 0.432719 0.318814 -3.35021
H -1.18205 1.57911 -3.84001
H -1.43633 0.68098 -2.44945
H -1.55156 -0.0505748 -3.95195
H 0.920879 1.11794 -2.78394
H 0.797535 0.339934 -4.38173
C 0.764609 -1.04248 -2.71296
H 0.416384 -1.08102 -1.6779
H 1.84488 -1.20759 -2.71612
H 0.29327 -1.85617 -3.26961
K 0.000106645 -6.35487e-05 3.73818
