12
Coordinates from XML
N -0.010761062696 -0.327683527028 -3.805757437943
C -0.105792412487 -0.477485621093 -2.31092398044
H -0.166917695011 -1.235755516686 -4.274851566751
H 0.923204936545 0.020638556464 -4.079797467526
H -0.719475896895 0.340492193545 -4.152171214117
H 0.645256956132 -1.217813979875 -2.018675702462
H -1.101598055888 -0.87736750697 -2.096388374961
C 0.11185485275 0.821150023216 -1.513714969725
H 1.105607183315 1.232524477052 -1.706917680695
H 0.02586259363 0.625285495002 -0.442032128788
H -0.634620869116 1.571845780443 -1.784530352311
K 3.72053e-07 2.9669082e-05 3.077329960061
