12
Coordinates from XML
N 0.500304 0.157855 -1.6
C -0.556158 -0.0865496 -2.6441
H 0.0863185 0.15172 -0.652575
H 0.955125 1.07443 -1.74743
H 1.2289 -0.574539 -1.63846
H -1.30636 0.70133 -2.52572
H -1.01451 -1.05217 -2.40945
C -0.0435356 -0.0974412 -4.09547
H 0.410334 0.862558 -4.35335
H -0.870003 -0.280961 -4.78651
H 0.70133 -0.884282 -4.23748
K -5.39451e-05 -1.64184e-05 3.22879
