12
Coordinates from XML
N -0.00697572 0.813987 -1.75915
C -0.332018 0.227186 -3.10675
H -0.477282 1.7263 -1.63458
H 1.01163 0.959864 -1.6598
H -0.318842 0.184069 -1.00107
H -0.00638443 0.955404 -3.8559
H -1.42102 0.130496 -3.15462
C 0.320585 -1.13681 -3.39482
H 1.4101 -1.06 -3.36094
H 0.0339718 -1.49026 -4.38839
H 0.000931527 -1.88183 -2.66209
K -1.53024e-06 -8.01501e-05 3.1963
