12
Coordinates from XML
N 0.352045118411 -0.948707021828 -2.534208241505
C 0.370877650718 0.00979844756 -3.694773315674
H 1.12861984612 -1.627333413613 -2.607875375
H -0.536508859657 -1.476544258167 -2.510158721882
H 0.450938474973 -0.441162960896 -1.639022705239
H 0.295522655103 -0.593456760286 -4.604704668987
H 1.345458164735 0.507249721281 -3.677598331801
C -0.748409016665 1.066393402458 -3.681676254843
H -1.731446392831 0.589893111241 -3.707847094134
H -0.661964503635 1.718927227473 -4.554022887197
H -0.685586878469 1.686380056363 -2.78402319122
K -3.2833827e-05 9.5262236e-05 3.857268336826
