12
Coordinates from XML
N 0.322727598372 -1.194110255364 -1.9328368782
C -0.289277510486 0.019526371979 -2.579779359418
H 0.153089251525 -2.038258656378 -2.505257389926
H -0.083385828042 -1.352913874401 -0.995515164557
H 1.344284211734 -1.076115398511 -1.826830682379
H -1.358490451992 -0.185892162023 -2.690039055159
H 0.160183309243 0.107975148815 -3.573621255045
C -0.093535039889 1.335485848624 -1.80563298015
H -0.544057354406 1.271329742597 -0.812147418362
H -0.565323756723 2.162725683958 -2.341684614888
H 0.969021155948 1.563999699918 -1.692200863208
K -3.4333533e-05 0.000119954625 2.47041499428
