12
Coordinates from XML
N 0.322728 -1.19411 -1.93284
C -0.289278 0.0195264 -2.57978
H 0.153089 -2.03826 -2.50526
H -0.0833858 -1.35291 -0.995515
H 1.34428 -1.07612 -1.82683
H -1.35849 -0.185892 -2.69004
H 0.160183 0.107975 -3.57362
C -0.093535 1.33549 -1.80563
H -0.544057 1.27133 -0.812147
H -0.565324 2.16273 -2.34168
H 0.969021 1.564 -1.6922
K -3.43335e-05 0.000119955 2.47041
