12
Coordinates from XML
N -0.571022 -0.982804 -1.78787
C -0.0537942 0.424277 -1.92423
H -1.06323 -1.10569 -0.886943
H 0.206086 -1.66349 -1.82643
H -1.23321 -1.20456 -2.55015
H 0.61097 0.600972 -1.0731
H -0.919858 1.08826 -1.84287
C 0.698109 0.714766 -3.23558
H 1.57328 0.0675544 -3.33201
H 1.0378 1.75329 -3.25402
H 0.0482016 0.552776 -4.099
K 5.69412e-05 0.000101473 2.7196
