12
Coordinates from XML
N 1.085867128411 0.362932014109 -3.68308784393
C 0.126552550872 -0.215644208578 -2.677620894516
H 2.055689693495 0.325625650562 -3.326603115797
H 0.853753110338 1.3500658426 -3.884106715341
H 1.047917850467 -0.165381711304 -4.570884258623
H 0.241998027702 0.366911942817 -1.75845226948
H 0.448813388772 -1.244385554351 -2.489474345375
C -1.35032658447 -0.208396619839 -3.111374934899
H -1.695103073907 0.812042678979 -3.295583330635
H -1.975998439195 -0.644066136286 -2.328439116174
H -1.48904130496 -0.793071809271 -4.024076553109
K -0.000108111379 -3.7865692e-05 3.770715436273
