12
Coordinates from XML
N -0.328785489652 -0.004281691245 -1.25345197669
C -0.482122158514 0.080184445293 -2.748561346689
H -1.244188719093 0.104833063294 -0.78530687977
H 0.301019543881 0.739078921134 -0.907794170326
H 0.067800483388 -0.918236195623 -0.977508605657
H -0.933841879434 1.052953131129 -2.965910527704
H -1.181568882812 -0.709627416845 -3.03930424066
C 0.826776698091 -0.070618415583 -3.544431534491
H 1.536695153341 0.715306916008 -3.275290152764
H 0.627389612587 0.001901679894 -4.616461067427
H 1.290062725428 -1.040657471164 -3.348213843593
K 2.9749766e-05 9.72892e-07 2.90372084049
