12
Coordinates from XML
N 1.0781 -0.273448 -2.98301
C -0.0661017 -0.392481 -2.01211
H 1.7723 -1.02292 -2.82362
H 1.55582 0.637012 -2.87547
H 0.740418 -0.348316 -3.95723
H 0.364323 -0.337742 -1.00747
H -0.50234 -1.38537 -2.15847
C -1.16008 0.679639 -2.16419
H -0.746452 1.67961 -2.01233
H -1.94963 0.520955 -1.42547
H -1.60975 0.636062 -3.15918
K -0.000108626 2.48016e-05 2.86056
