12
Coordinates from XML
N -0.461428 0.50574 -4.05729
C 0.0486359 0.428438 -2.64312
H -0.729975 1.47509 -4.29661
H -1.29105 -0.0986439 -4.18043
H 0.264905 0.197881 -4.72542
H -0.753836 0.796834 -1.99668
H 0.90065 1.112 -2.57701
C 0.477335 -0.976857 -2.18407
H -0.36282 -1.67383 -2.23372
H 0.833538 -0.94451 -1.15143
H 1.28538 -1.35998 -2.81208
K 4.66258e-05 -4.78677e-05 3.5649
