12
Coordinates from XML
N 0.365412 -1.09634 -2.40286
C -0.285588 0.0656555 -1.71486
H 0.763412 -1.75034 -1.70986
H 1.12641 -0.769345 -3.01986
H -0.324588 -1.60734 -2.97786
H 0.493412 0.533655 -1.10686
H -1.05259 -0.360345 -1.06186
C -0.912588 1.10266 -2.65986
H -0.152588 1.52766 -3.31886
H -1.36459 1.91466 -2.08486
H -1.68759 0.640655 -3.27486
K 0.294559 0.0308545 2.69081
