12
Coordinates from XML
N 0.300695827513 -1.115137525513 -2.583131793942
C -0.350304172487 0.046862474487 -1.895131793942
H 0.698695827513 -1.769137525513 -1.890131793942
H 1.061695827513 -0.788137525513 -3.200131793942
H -0.389304172487 -1.626137525513 -3.158131793942
H 0.428695827513 0.514862474487 -1.287131793942
H -1.117304172487 -0.379137525513 -1.242131793942
C -0.977304172487 1.083862474487 -2.840131793942
H -0.217304172487 1.508862474487 -3.499131793942
H -1.429304172487 1.895862474487 -2.265131793942
H -1.752304172487 0.621862474487 -3.455131793942
K 0.371071570871 0.053072959622 2.903945514377
