12
Coordinates from XML
N 0.291451 -1.11782 -2.60889
C -0.359549 0.0441778 -1.92089
H 0.689451 -1.77182 -1.91589
H 1.05245 -0.790822 -3.22589
H -0.398549 -1.62882 -3.18389
H 0.419451 0.512178 -1.31289
H -1.12655 -0.381822 -1.26789
C -0.986549 1.08118 -2.86589
H -0.226549 1.50618 -3.52489
H -1.43855 1.89318 -2.29089
H -1.76155 0.619178 -3.48089
K 0.382002 0.056247 2.93439
