12
Coordinates from XML
N 0.286828 -1.11916 -2.62176
C -0.364172 0.0428354 -1.93376
H 0.684828 -1.77316 -1.92876
H 1.04783 -0.792165 -3.23876
H -0.403172 -1.63016 -3.19676
H 0.414828 0.510835 -1.32576
H -1.13117 -0.383165 -1.28076
C -0.991172 1.07984 -2.87876
H -0.231172 1.50484 -3.53776
H -1.44317 1.89184 -2.30376
H -1.76617 0.617835 -3.49376
K 0.387467 0.0578341 2.94962
