12
Coordinates from XML
N 0.386653997736 -1.090176071647 -2.343683374672
C -0.264346002264 0.071823928353 -1.655683374672
H 0.784653997736 -1.744176071647 -1.650683374672
H 1.147653997736 -0.763176071647 -2.960683374672
H -0.303346002264 -1.601176071647 -2.918683374672
H 0.514653997736 0.539823928353 -1.047683374672
H -1.031346002264 -0.354176071647 -1.002683374672
C -0.891346002264 1.108823928353 -2.600683374672
H -0.131346002264 1.533823928353 -3.259683374672
H -1.343346002264 1.920823928353 -2.025683374672
H -1.666346002264 0.646823928353 -3.215683374672
K 0.269445688049 0.02356174761 2.620852506053
