12
Coordinates from XML
N 0.380160358756 -1.092061764065 -2.361772307754
C -0.270839641244 0.069938235935 -1.673772307754
H 0.778160358756 -1.746061764065 -1.668772307754
H 1.141160358756 -0.765061764065 -2.978772307754
H -0.309839641244 -1.603061764065 -2.936772307754
H 0.508160358756 0.537938235935 -1.065772307754
H -1.037839641244 -0.356061764065 -1.020772307754
C -0.897839641244 1.106938235935 -2.618772307754
H -0.137839641244 1.531938235935 -3.277772307754
H -1.349839641244 1.918938235935 -2.043772307754
H -1.672839641244 0.644938235935 -3.233772307754
K 0.277122931438 0.025791147749 2.642238533571
