12
Coordinates from XML
N 0.360679 -1.09772 -2.41604
C -0.290321 0.0642812 -1.72804
H 0.758679 -1.75172 -1.72304
H 1.12168 -0.770719 -3.03304
H -0.329321 -1.60872 -2.99104
H 0.488679 0.532281 -1.12004
H -1.05732 -0.361719 -1.07504
C -0.917321 1.10128 -2.67304
H -0.157321 1.52628 -3.33204
H -1.36932 1.91328 -2.09804
H -1.69232 0.639281 -3.28804
K 0.300155 0.0324793 2.7064
