12
Coordinates from XML
N 0.354185802837 -1.099604533735 -2.434128040081
C -0.296814197163 0.062395466265 -1.746128040081
H 0.752185802837 -1.753604533735 -1.741128040081
H 1.115185802837 -0.772604533735 -3.051128040081
H -0.335814197163 -1.610604533735 -3.009128040081
H 0.482185802837 0.530395466265 -1.138128040081
H -1.063814197163 -0.363604533735 -1.093128040081
C -0.923814197163 1.099395466265 -2.691128040081
H -0.163814197163 1.524395466265 -3.350128040081
H -1.375814197163 1.911395466265 -2.116128040081
H -1.698814197163 0.637395466265 -3.306128040081
K 0.307831904992 0.034708748306 2.72778264364
