12
Coordinates from XML
N 0.347692163858 -1.101490226152 -2.452216973163
C -0.303307836142 0.060509773848 -1.764216973163
H 0.745692163858 -1.755490226152 -1.759216973163
H 1.108692163858 -0.774490226152 -3.069216973163
H -0.342307836142 -1.612490226152 -3.027216973163
H 0.475692163858 0.528509773848 -1.156216973163
H -1.070307836142 -0.365490226152 -1.111216973163
C -0.930307836142 1.097509773848 -2.709216973163
H -0.170307836142 1.522509773848 -3.368216973163
H -1.382307836142 1.909509773848 -2.134216973163
H -1.705307836142 0.635509773848 -3.324216973163
K 0.315509148381 0.036938148445 2.749168671158
