12
Coordinates from XML
N 0.347692 -1.10149 -2.45222
C -0.303308 0.0605098 -1.76422
H 0.745692 -1.75549 -1.75922
H 1.10869 -0.77449 -3.06922
H -0.342308 -1.61249 -3.02722
H 0.475692 0.52851 -1.15622
H -1.07031 -0.36549 -1.11122
C -0.930308 1.09751 -2.70922
H -0.170308 1.52251 -3.36822
H -1.38231 1.90951 -2.13422
H -1.70531 0.63551 -3.32422
K 0.315509 0.0369381 2.74917
