12
Coordinates from XML
N -1.220831283228 0.231326751703 -2.238512532369
C 0.10015868927 -0.572467281336 -2.240171886156
H -1.98225045032 -0.307214225711 -2.658039258404
H -1.111533615966 1.099900870255 -2.767702552165
H -1.489034322732 0.47647185863 -1.282279759067
H 0.29510802504 -0.821196989303 -3.280983586015
H -0.108727955497 -1.488159718343 -1.691465836371
C 1.223197794477 0.23838222221 -1.614624989628
H 1.426190401138 1.156811624204 -2.167593721222
H 2.136972090753 -0.355151899492 -1.631191563462
H 1.020519025174 0.487709005964 -0.571916170993
K 0.026342581646 0.013310201707 2.406865285832
