12
Coordinates from XML
N -1.22083 0.231327 -2.23851
C 0.100159 -0.572467 -2.24017
H -1.98225 -0.307214 -2.65804
H -1.11153 1.0999 -2.7677
H -1.48903 0.476472 -1.28228
H 0.295108 -0.821197 -3.28098
H -0.108728 -1.48816 -1.69147
C 1.2232 0.238382 -1.61462
H 1.42619 1.15681 -2.16759
H 2.13697 -0.355152 -1.63119
H 1.02052 0.487709 -0.571916
K 0.0263426 0.0133102 2.40687
