12
Coordinates from XML
N -1.220831283228 0.231326751703 -2.577608766472
C 0.10015868927 -0.572467281336 -2.579268120258
H -1.98225045032 -0.307214225711 -2.997135492506
H -1.111533615966 1.099900870255 -3.106798786267
H -1.489034322732 0.47647185863 -1.62137599317
H 0.29510802504 -0.821196989303 -3.620079820118
H -0.108727955497 -1.488159718343 -2.030562070474
C 1.223197794477 0.23838222221 -1.95372122373
H 1.426190401138 1.156811624204 -2.506689955324
H 2.136972090753 -0.355151899492 -1.970287797564
H 1.020519025174 0.487709005964 -0.911012405095
K 0.026342581646 0.013310201707 2.807769051729
