12
Coordinates from XML
N -1.22083 0.231327 -2.74257
C 0.100159 -0.572467 -2.74423
H -1.98225 -0.307214 -3.1621
H -1.11153 1.0999 -3.27176
H -1.48903 0.476472 -1.78634
H 0.295108 -0.821197 -3.78505
H -0.108728 -1.48816 -2.19553
C 1.2232 0.238382 -2.11869
H 1.42619 1.15681 -2.67166
H 2.13697 -0.355152 -2.13525
H 1.02052 0.487709 -1.07598
K 0.0263426 0.0133102 3.0028
