12
Coordinates from XML
N -1.22083 0.231327 -2.90754
C 0.100159 -0.572467 -2.9092
H -1.98225 -0.307214 -3.32707
H -1.11153 1.0999 -3.43673
H -1.48903 0.476472 -1.95131
H 0.295108 -0.821197 -3.95001
H -0.108728 -1.48816 -2.36049
C 1.2232 0.238382 -2.28365
H 1.42619 1.15681 -2.83662
H 2.13697 -0.355152 -2.30022
H 1.02052 0.487709 -1.24094
K 0.0263426 0.0133102 3.19784
