19
Coordinates from XML
N -0.436127343054 -0.347767433125 -3.289655714682
C -0.378358523362 -0.190121238123 -1.79372485693
H -1.28455379674 -0.867986714018 -3.569965162209
H 0.388979509857 -0.866123490398 -3.634944548221
H -0.455591049044 0.575545816011 -3.754254274968
H -0.393231836085 -1.198329970873 -1.36844350926
H -1.291249291345 0.334872629453 -1.496114687687
C 0.850800473127 0.573492325165 -1.268911020591
H 1.774180543937 0.060007659875 -1.547842314362
H 0.814893145885 0.643389600303 -0.178917108508
H 0.879663269149 1.587476728092 -1.675252827849
N -0.01908658456 -0.543250773379 3.547187764604
C 0.021938405187 0.622066999349 2.642901781753
H -0.94579018711 -0.648872873944 3.980549212925
H 0.669020690704 -0.452937263303 4.3062871373
H 0.188371800951 -1.415806650289 3.043673752932
H -0.20511786971 1.511398873674 3.23376622927
H -0.726741982939 0.466687972592 1.863738099027
H 1.025566618555 0.679217692359 2.217181465559
