19
Coordinates from XML
N -0.007192842434 -0.858536575643 -2.988479354406
C -0.247982316596 0.461882872949 -2.306928476326
H -0.35975430549 -0.838042186499 -3.96023515124
H -0.489525544035 -1.622668956775 -2.486308498549
H 1.002883946086 -1.076963493806 -3.016274620468
H -1.326490046933 0.644016261883 -2.341839694285
H 0.260862277768 1.223601703023 -2.905611640276
C 0.241621833487 0.538468381961 -0.849605755879
H -0.261918909459 -0.209137345179 -0.231841787813
H 0.029835916314 1.525669103125 -0.431463250242
H 1.319540919679 0.368028448304 -0.793465152584
N 0.053731684604 0.040358012593 3.680490153481
C -0.061516951245 -0.046011542023 2.211939932354
H 0.694019387956 -0.67522541981 4.048878193741
H -0.858013117335 -0.095906300439 4.13659700843
H 0.412912235254 0.958098855343 3.97487116099
H -0.445605549247 -1.037485437365 1.964873152436
H 0.933484744746 0.106099266404 1.789334990434
H -0.750653947172 0.734815571174 1.88456736151
