19
Coordinates from XML
N 0.234381843657 -0.85313257504 -2.847999584824
C 0.18798647478 -0.224598156729 -1.480962407112
H 0.668617108427 -1.790474054976 -2.804876288106
H 0.78708899329 -0.27116437766 -3.49957193183
H -0.718428251446 -0.956484986819 -3.2355679217
H 1.219888797132 -0.175778877192 -1.119902074246
H -0.381258163701 -0.904743519721 -0.839929837845
C -0.442584784992 1.178782071589 -1.43330848161
H 0.117319703946 1.87669951286 -2.060618717249
H -0.437482312625 1.560505901393 -0.409334567813
H -1.477844417483 1.150510662267 -1.781947715561
N -0.446201143882 0.086515031762 3.347168020724
C 0.510826245235 -0.098852165342 2.239413860851
H -0.109050138788 0.787099452889 4.020405281011
H -0.59710468753 -0.790574980678 3.862746570115
H -1.361669030773 0.404161692643 3.002293772767
H 1.456952967249 -0.434423726488 2.668159103671
H 0.627446586622 0.86199869524 1.734511563675
H 0.097752270255 -0.849967335184 1.563418688658
