10
Coordinates from XML
C -0.659223950898 0.86788474609 -0.032090890841
C 0.046244422161 -0.069887713285 -1.073791390554
O -0.721006159961 -0.846652004909 -1.762836935168
O 1.333958183882 0.040376639784 -1.124694594614
H -1.747575128179 0.733255107309 -0.053384738766
H -0.274846342264 0.645162985637 0.974454853974
H -0.406145518816 1.914862215153 -0.255548553561
O -0.056549022434 -0.032687521116 3.259284455482
H 0.803731620171 -0.382674163639 3.509380708981
H 0.09295819929 0.902729720243 3.092659891804
