10
Coordinates from XML
C -0.659224 0.867885 -0.0320909
C 0.0462444 -0.0698877 -1.07379
O -0.721006 -0.846652 -1.76284
O 1.33396 0.0403766 -1.12469
H -1.74758 0.733255 -0.0533847
H -0.274846 0.645163 0.974455
H -0.406146 1.91486 -0.255549
O -0.056549 -0.0326875 3.25928
H 0.803732 -0.382674 3.50938
H 0.0929582 0.90273 3.09266
