10
Coordinates from XML
C 0.367783 -0.421742 0.253487
C -0.0331344 0.0367362 -1.19265
O -1.0679 0.802798 -1.28867
O 0.7265 -0.411485 -2.1387
H -0.307338 0.00617739 1.00461
H 0.337655 -1.52026 0.306678
H 1.40299 -0.111701 0.459294
O 0.0285481 -0.0579177 3.55938
H -0.696736 0.13128 4.16212
H 0.244086 0.787484 3.15446
