10
Coordinates from XML
C 1.42785 0.170723 -0.638562
C -0.11176 -0.00925338 -0.882397
O -0.657741 0.790333 -1.73644
O -0.66884 -0.949181 -0.190187
H 1.83605 0.971624 -1.26706
H 1.60185 0.403164 0.422654
H 1.94351 -0.776433 -0.855667
O 0.0188697 0.0621265 2.82828
H 0.581033 -0.70204 2.66971
H -0.878577 -0.283861 2.83029
