10
Coordinates from XML
C -1.011440524742 0.448955013074 -1.978294099203
C 0.080708629314 -0.039859974802 -0.963152298777
O 0.657903810746 -1.162651730044 -1.233345525846
O 0.281504640393 0.745884848642 0.044439945255
H -1.118301081655 -0.2551551551 -2.812498237969
H -1.972524236831 0.55484456954 -1.453326514305
H -0.734641002989 1.443080495857 -2.359398271021
O 0.065107607094 0.005444097081 3.383539684484
H -0.578007018807 0.716087666349 3.464229618246
H -0.456860233146 -0.801891036203 3.353855912481
