10
Coordinates from XML
C 0.516285317204 -0.400431137511 -2.305571024701
C -0.043929353095 0.035674126889 -0.906208861573
O -0.805394866406 1.078124410204 -0.889248262611
O 0.326223779363 -0.70637621203 0.0864159663
H 0.151213394761 0.261259378053 -3.10053958115
H 1.615967893902 -0.379868989427 -2.277986725203
H 0.212725202278 -1.437519621839 -2.511586977575
O 0.033289952711 0.055726532298 3.302921441388
H 0.374829653451 -0.842185564276 3.350102683893
H -0.90254051717 -0.042920148821 3.103894473498
