10
Coordinates from XML
C 0.516285 -0.400431 -2.30557
C -0.0439294 0.0356741 -0.906209
O -0.805395 1.07812 -0.889248
O 0.326224 -0.706376 0.086416
H 0.151213 0.261259 -3.10054
H 1.61597 -0.379869 -2.27799
H 0.212725 -1.43752 -2.51159
O 0.03329 0.0557265 3.30292
H 0.37483 -0.842186 3.3501
H -0.902541 -0.0429201 3.10389
