10
Coordinates from XML
C -0.620935 -0.803872 -1.87425
C 0.0541346 0.0606255 -0.752128
O 1.30421 -0.166425 -0.5228
O -0.727873 0.913332 -0.17393
H 0.101157 -1.49201 -2.33047
H -1.45633 -1.37298 -1.43985
H -1.04186 -0.138211 -2.64228
O 0.0540824 -0.0331579 2.71132
H -0.665025 -0.328446 3.27772
H -0.194287 0.853649 2.43382
