10
Coordinates from XML
C -1.26512 0.518818 -0.638958
C 0.0962461 -0.0452809 -1.17815
O 0.0486402 -1.18319 -1.78619
O 1.127 0.701523 -0.948382
H -2.09553 -0.1555 -0.881442
H -1.19654 0.650031 0.451255
H -1.44692 1.511 -1.07791
O -0.0281051 0.0567129 3.74066
H -0.138479 -0.425803 2.91597
H 0.582838 -0.473706 4.26078
