10
Coordinates from XML
C -1.21379 0.781725 -1.16781
C 0.0964323 -0.05817 -0.967473
O 0.872371 0.305201 -0.00170835
O 0.255263 -1.03161 -1.80422
H -1.29101 1.57774 -0.417155
H -1.21298 1.21905 -2.17738
H -2.08662 0.115648 -1.09963
O -0.0476057 0.0338627 3.263
H 0.625559 -0.516031 3.67481
H 0.128418 -0.0203881 2.31897
