10
Coordinates from XML
C 0.609323 0.177223 -2.2447
C -0.0436152 -0.0181498 -0.831285
O 0.428644 -0.975547 -0.105212
O -0.995245 0.811171 -0.549177
H 1.41604 -0.547238 -2.41037
H -0.162774 0.0603439 -3.01974
H 1.00239 1.20151 -2.32518
O -0.0264171 0.0597966 3.06806
H 0.151194 -0.456141 2.27599
H 0.268984 -0.492788 3.7978
