10
Coordinates from XML
C 0.609322828952 0.177223358106 -2.244700892174
C -0.043615223357 -0.01814980453 -0.831285182193
O 0.428644362145 -0.975546826291 -0.105212314164
O -0.995244546251 0.811170772961 -0.549176856502
H 1.416041645953 -0.547237611376 -2.410374989959
H -0.162774171356 0.060343898256 -3.01974339358
H 1.002385116056 1.20151300984 -2.325178145767
O -0.026417093388 0.059796618532 3.068062868504
H 0.151194331577 -0.456141103759 2.275987102912
H 0.268984068341 -0.4927882218 3.797795503024
