10
Coordinates from XML
C -1.024401953934 1.031622536739 -1.120769393535
C 0.081347023796 -0.080230632644 -1.062938000371
O 0.591493816791 -0.445472966303 -2.19128558439
O 0.359988700416 -0.513144607992 0.123611788666
H -1.198468968476 1.361922021652 -2.152122765275
H -1.957758957265 0.636975944209 -0.692302082832
H -0.714148125049 1.885551620997 -0.500534340302
O 0.052093276038 -0.006018053658 3.517484648858
H -0.697383421219 -0.604408359306 3.444441563111
H -0.130923150595 0.701365793152 2.891997118323
