10
Coordinates from XML
C -1.08119 0.376785 -0.271266
C 0.0865861 -0.0338288 -1.2356
O 0.924556 -0.90764 -0.787179
O 0.0798611 0.558125 -2.3856
H -1.02262 -0.173003 0.67604
H -1.02885 1.45883 -0.0790977
H -2.04524 0.177117 -0.762068
O 0.015103 -0.0339821 3.77707
H 0.446758 0.758608 4.10963
H -0.687986 -0.218689 4.40689
