10
Coordinates from XML
C 0.63682 -1.13551 -0.31827
C -0.0494095 0.0922829 -1.01387
O -0.309465 1.10957 -0.262653
O -0.282392 -0.0550133 -2.27758
H 0.818029 -0.936293 0.745008
H -0.00727273 -2.02071 -0.428046
H 1.58735 -1.35655 -0.825987
O -0.00175499 -0.0445315 3.12395
H 0.137275 -0.202726 4.06244
H -0.108534 0.908018 3.04414
