10
Coordinates from XML
C 0.51329752256 -0.928461713473 -2.062080553322
C -0.03531236236 0.071820652422 -0.984720295702
O 0.635614108018 0.16027402333 0.114758515182
O -1.113046586304 0.702238783281 -1.322385838348
H 1.433821532535 -1.414735596794 -1.716739982084
H -0.253469921974 -1.688283588589 -2.274739597577
H 0.704859479483 -0.384676353279 -2.998961196327
O 0.008379051209 -0.063522249955 3.507480170895
H -0.823201432247 0.411439481385 3.41799931653
H 0.690921197474 0.595574467721 3.349843546592
