10
Coordinates from XML
C -0.160221 1.44577 -1.0357
C 0.0146088 -0.113284 -1.00381
O 0.348666 -0.67899 -2.11521
O -0.200189 -0.66422 0.146528
H 0.0515013 1.84636 -2.03459
H -1.18909 1.70106 -0.741157
H 0.515217 1.90255 -0.297265
O 0.0307099 -0.00692202 3.33659
H 0.0502837 -0.606852 2.58504
H -0.537966 0.718731 3.06244
