10
Coordinates from XML
C -0.160221410463 1.445773569691 -1.035697115042
C 0.014608768857 -0.1132840357 -1.003813992163
O 0.348666478062 -0.678989660027 -2.115210670486
O -0.200188923222 -0.664220037616 0.146528378236
H 0.051501313398 1.846356035434 -2.034593520594
H -1.189085214851 1.701059227442 -0.741156846195
H 0.515216821416 1.902551011017 -0.297265395415
O 0.030709879752 -0.006922022154 3.336587263059
H 0.050283715282 -0.606851649562 2.585040273763
H -0.537966477378 0.718730930366 3.062440289082
