10
Coordinates from XML
C -0.762323 -0.905591 -0.294973
C 0.0576162 0.0681901 -1.21241
O 0.0448458 -0.184519 -2.47843
O 0.663733 1.026 -0.589364
H -1.2608 -1.68142 -0.888852
H -0.0844817 -1.37201 0.435414
H -1.5086 -0.329256 0.271641
O -0.0421115 0.0361345 3.77372
H 0.697928 -0.480902 4.10559
H -0.0305449 -0.0939304 2.82079
