10
Coordinates from XML
C -0.762323247171 -0.905590768177 -0.294972887871
C 0.057616194745 0.068190123682 -1.212411075594
O 0.044845798581 -0.184519328986 -2.478426412221
O 0.663733496188 1.025995007239 -0.589363952342
H -1.26080266117 -1.681420761161 -0.888852461934
H -0.084481734377 -1.372014818777 0.435413964119
H -1.508601129794 -0.329255822965 0.271640907739
O -0.042111455929 0.03613446817 3.773718028429
H 0.697928298014 -0.480902057773 4.105585416742
H -0.030544873079 -0.093930414809 2.820790481143
