10
Coordinates from XML
C 1.158034963784 0.875101747198 -0.950704687308
C -0.091217855178 -0.067382980218 -1.066171890252
O -0.697317731324 -0.084522206174 -2.20598291412
O -0.378616868466 -0.728439803881 0.007774932881
H 1.352314068143 1.390926592682 -1.899001693037
H 0.982979895369 1.612621186823 -0.153267376792
H 2.036625958542 0.280274126015 -0.660184798924
O 0.027923895208 0.043835972873 3.407814888071
H -0.06118168303 -0.903428066175 3.266844656275
H -0.380456384312 0.208825528314 4.262873695343
