10
Coordinates from XML
C -0.464997 -0.688777 -1.95198
C 0.0319188 0.0580546 -0.664516
O -0.570335 1.16115 -0.369068
O 1.00289 -0.521515 -0.036603
H -1.29671 -0.151411 -2.42375
H 0.370314 -0.781818 -2.66197
H -0.78115 -1.70732 -1.68225
O 0.0540089 0.0367568 2.47902
H -0.814522 0.239209 2.11876
H -0.0434286 -0.823605 2.89783
