10
Coordinates from XML
C -0.816995 1.04238 -1.56597
C 0.0632519 -0.0852317 -0.921075
O 0.132026 -1.20223 -1.56482
O 0.626909 0.234075 0.198429
H -1.25028 0.709492 -2.51704
H -1.61967 1.31994 -0.86657
H -0.199084 1.93795 -1.72813
O -0.00739772 0.0640704 3.16832
H -0.669333 -0.549356 2.83565
H 0.785624 -0.466211 3.29095
