10
Coordinates from XML
C 0.0515786 -1.45378 -0.950024
C -0.00232149 0.114189 -0.978745
O 0.184725 0.718376 0.146773
O -0.232988 0.632213 -2.14124
H 0.265375 -1.82293 0.0604726
H -0.911368 -1.85583 -1.2987
H 0.825542 -1.80383 -1.64902
O 0.0650694 0.00712919 3.21708
H -0.601356 0.693632 3.11853
H -0.431431 -0.808811 3.33045
