10
Coordinates from XML
C 0.418338 0.101186 -2.08809
C 0.104338 0.0111864 -0.614089
O 0.722338 -0.872814 0.0449113
O -0.744662 0.836186 -0.172089
H 1.16834 -0.639814 -2.38109
H -0.489662 -0.0748136 -2.67309
H 0.805338 1.09619 -2.32509
O -0.423662 -0.0648136 2.40091
H 0.154338 -0.600814 1.80191
H -0.783662 0.491186 1.66591
