10
Coordinates from XML
C 0.485939720477 0.068813902024 -2.297201046613
C 0.171939720477 -0.021186097976 -0.823201046613
O 0.789939720477 -0.905186097976 -0.164201046613
O -0.677060279523 0.803813902024 -0.381201046613
H 1.235939720477 -0.672186097976 -2.590201046613
H -0.422060279523 -0.107186097976 -2.882201046613
H 0.872939720477 1.063813902024 -2.534201046613
O -0.645164377044 0.041258117738 3.08608750857
H -0.067164377044 -0.494741882262 2.48708750857
H -1.005164377044 0.597258117738 2.35108750857
