10
Coordinates from XML
C 0.487063290891 0.06827585422 -2.300676598053
C 0.173063290891 -0.02172414578 -0.826676598053
O 0.791063290891 -0.90572414578 -0.167676598053
O -0.675936709109 0.80327585422 -0.384676598053
H 1.237063290891 -0.67272414578 -2.593676598053
H -0.420936709109 -0.10772414578 -2.885676598053
H 0.874063290891 1.06327585422 -2.537676598053
O -0.648845860882 0.043021081829 3.097475478823
H -0.070845860882 -0.492978918171 2.498475478823
H -1.008845860882 0.599021081829 2.362475478823
