10
Coordinates from XML
C 0.487063 0.0682759 -2.30068
C 0.173063 -0.0217241 -0.826677
O 0.791063 -0.905724 -0.167677
O -0.675937 0.803276 -0.384677
H 1.23706 -0.672724 -2.59368
H -0.420937 -0.107724 -2.88568
H 0.874063 1.06328 -2.53768
O -0.648846 0.0430211 3.09748
H -0.0708459 -0.492979 2.49848
H -1.00885 0.599021 2.36248
