10
Coordinates from XML
C 0.488186861306 0.067737806416 -2.304152149493
C 0.174186861306 -0.022262193584 -0.830152149493
O 0.792186861306 -0.906262193584 -0.171152149493
O -0.674813138694 0.802737806416 -0.388152149493
H 1.238186861306 -0.673262193584 -2.597152149493
H -0.419813138694 -0.108262193584 -2.889152149493
H 0.875186861306 1.062737806416 -2.541152149493
O -0.65252734472 0.044784045921 3.108863449076
H -0.07452734472 -0.491215954079 2.509863449076
H -1.01252734472 0.600784045921 2.373863449076
