10
Coordinates from XML
C 0.48931043172 0.067199758612 -2.307627700933
C 0.17531043172 -0.022800241388 -0.833627700933
O 0.79331043172 -0.906800241388 -0.174627700933
O -0.67368956828 0.802199758612 -0.391627700933
H 1.23931043172 -0.673800241388 -2.600627700933
H -0.41868956828 -0.108800241388 -2.892627700933
H 0.87631043172 1.062199758612 -2.544627700933
O -0.656208828558 0.046547010012 3.120251419329
H -0.078208828558 -0.489452989988 2.521251419329
H -1.016208828558 0.602547010012 2.385251419329
