10
Coordinates from XML
C 0.48931 0.0671998 -2.30763
C 0.17531 -0.0228002 -0.833628
O 0.79331 -0.9068 -0.174628
O -0.67369 0.8022 -0.391628
H 1.23931 -0.6738 -2.60063
H -0.41869 -0.1088 -2.89263
H 0.87631 1.0622 -2.54463
O -0.656209 0.046547 3.12025
H -0.0782088 -0.489453 2.52125
H -1.01621 0.602547 2.38525
