10
Coordinates from XML
C 0.489872 0.0669307 -2.30937
C 0.175872 -0.0230693 -0.835365
O 0.793872 -0.907069 -0.176365
O -0.673128 0.801931 -0.393365
H 1.23987 -0.674069 -2.60237
H -0.418128 -0.109069 -2.89437
H 0.876872 1.06193 -2.54637
O -0.65805 0.0474285 3.12595
H -0.0800496 -0.488572 2.52695
H -1.01805 0.603428 2.39095
