10
Coordinates from XML
C 0.489872216927 0.06693073471 -2.309365476653
C 0.175872216927 -0.02306926529 -0.835365476653
O 0.793872216927 -0.90706926529 -0.176365476653
O -0.673127783073 0.80193073471 -0.393365476653
H 1.239872216927 -0.67406926529 -2.602365476653
H -0.418127783073 -0.10906926529 -2.894365476653
H 0.876872216927 1.06193073471 -2.546365476653
O -0.658049570477 0.047428492058 3.125945404455
H -0.080049570477 -0.488571507942 2.526945404455
H -1.018049570477 0.603428492058 2.390945404455
