10
Coordinates from XML
C 0.490434 0.0666617 -2.3111
C 0.176434 -0.0233383 -0.837103
O 0.794434 -0.907338 -0.178103
O -0.672566 0.801662 -0.395103
H 1.24043 -0.674338 -2.6041
H -0.417566 -0.109338 -2.8961
H 0.877434 1.06166 -2.5481
O -0.65989 0.04831 3.13164
H -0.0818903 -0.48769 2.53264
H -1.01989 0.60431 2.39664
