10
Coordinates from XML
C 0.490434002134 0.066661710808 -2.311103252373
C 0.176434002134 -0.023338289192 -0.837103252373
O 0.794434002134 -0.907338289192 -0.178103252373
O -0.672565997866 0.801661710808 -0.395103252373
H 1.240434002134 -0.674338289192 -2.604103252373
H -0.417565997866 -0.109338289192 -2.896103252373
H 0.877434002134 1.061661710808 -2.548103252373
O -0.659890312396 0.048309974104 3.131639389581
H -0.081890312396 -0.487690025896 2.532639389581
H -1.019890312396 0.604309974104 2.396639389581
