10
Coordinates from XML
C 0.490996 0.0663927 -2.31284
C 0.176996 -0.0236073 -0.838841
O 0.794996 -0.907607 -0.179841
O -0.672004 0.801393 -0.396841
H 1.241 -0.674607 -2.60584
H -0.417004 -0.109607 -2.89784
H 0.877996 1.06139 -2.54984
O -0.661731 0.0491915 3.13733
H -0.0837311 -0.486809 2.53833
H -1.02173 0.605191 2.40233
