10
Coordinates from XML
C 0.492119 0.0658546 -2.31632
C 0.178119 -0.0241454 -0.842317
O 0.796119 -0.908145 -0.183317
O -0.670881 0.800855 -0.400317
H 1.24212 -0.675145 -2.60932
H -0.415881 -0.110145 -2.90132
H 0.879119 1.06085 -2.55332
O -0.665413 0.0509544 3.14872
H -0.0874125 -0.485046 2.54972
H -1.02541 0.606954 2.41372
