10
Coordinates from XML
C 0.493243 0.0653166 -2.31979
C 0.179243 -0.0246834 -0.845792
O 0.797243 -0.908683 -0.186792
O -0.669757 0.800317 -0.403792
H 1.24324 -0.675683 -2.61279
H -0.414757 -0.110683 -2.90479
H 0.880243 1.06032 -2.55679
O -0.669094 0.0527174 3.16011
H -0.091094 -0.483283 2.56111
H -1.02909 0.608717 2.42511
