10
Coordinates from XML
C 0.493805 0.0650476 -2.32153
C 0.179805 -0.0249524 -0.84753
O 0.797805 -0.908952 -0.18853
O -0.669195 0.800048 -0.40553
H 1.2438 -0.675952 -2.61453
H -0.414195 -0.110952 -2.90653
H 0.880805 1.06005 -2.55853
O -0.670935 0.0535989 3.1658
H -0.0929348 -0.482401 2.5668
H -1.03093 0.609599 2.4308
