10
Coordinates from XML
C 0.494366498584 0.064778543494 -2.323267682413
C 0.180366498584 -0.025221456506 -0.849267682413
O 0.798366498584 -0.909221456506 -0.190267682413
O -0.668633501416 0.799778543494 -0.407267682413
H 1.244366498584 -0.676221456506 -2.616267682413
H -0.413633501416 -0.111221456506 -2.908267682413
H 0.881366498584 1.059778543494 -2.560267682413
O -0.67277550583 0.054480348424 3.171497285466
H -0.09477550583 -0.481519651576 2.572497285466
H -1.03277550583 0.610480348424 2.436497285466
