10
Coordinates from XML
C 0.494366 0.0647785 -2.32327
C 0.180366 -0.0252215 -0.849268
O 0.798366 -0.909221 -0.190268
O -0.668634 0.799779 -0.407268
H 1.24437 -0.676221 -2.61627
H -0.413634 -0.111221 -2.90827
H 0.881366 1.05978 -2.56027
O -0.672776 0.0544803 3.1715
H -0.0947755 -0.48152 2.5725
H -1.03278 0.61048 2.4365
