10
Coordinates from XML
C 0.494928283791 0.064509519592 -2.325005458133
C 0.180928283791 -0.025490480408 -0.851005458133
O 0.798928283791 -0.909490480408 -0.192005458133
O -0.668071716209 0.799509519592 -0.409005458133
H 1.244928283791 -0.676490480408 -2.618005458133
H -0.413071716209 -0.111490480408 -2.910005458133
H 0.881928283791 1.059509519592 -2.562005458133
O -0.674616247749 0.05536183047 3.177191270593
H -0.096616247749 -0.48063816953 2.578191270593
H -1.034616247749 0.61136183047 2.442191270593
