10
Coordinates from XML
C 0.49549 0.0642405 -2.32674
C 0.18149 -0.0257595 -0.852743
O 0.79949 -0.90976 -0.193743
O -0.66751 0.79924 -0.410743
H 1.24549 -0.67676 -2.61974
H -0.41251 -0.11176 -2.91174
H 0.88249 1.05924 -2.56374
O -0.676457 0.0562433 3.18289
H -0.098457 -0.479757 2.58389
H -1.03646 0.612243 2.44789
