10
Coordinates from XML
C 0.496052 0.0639715 -2.32848
C 0.182052 -0.0260285 -0.854481
O 0.800052 -0.910029 -0.195481
O -0.666948 0.798971 -0.412481
H 1.24605 -0.677029 -2.62148
H -0.411948 -0.112029 -2.91348
H 0.883052 1.05897 -2.56548
O -0.678298 0.0571248 3.18858
H -0.100298 -0.478875 2.58958
H -1.0383 0.613125 2.45358
