10
Coordinates from XML
C 0.487126 0.068246 -2.30087
C 0.173126 -0.021754 -0.82687
O 0.791126 -0.905754 -0.16787
O -0.675874 0.803246 -0.38487
H 1.23713 -0.672754 -2.59387
H -0.420874 -0.107754 -2.88587
H 0.874126 1.06325 -2.53787
O -0.64905 0.043119 3.09811
H -0.0710504 -0.492881 2.49911
H -1.00905 0.599119 2.36311
