10
Coordinates from XML
C 0.488548900661 0.067564435457 -2.305272049402
C 0.174548900661 -0.022435564543 -0.831272049402
O 0.792548900661 -0.906435564543 -0.172272049402
O -0.674451099339 0.802564435457 -0.389272049402
H 1.238548900661 -0.673435564543 -2.598272049402
H -0.419451099339 -0.108435564543 -2.890272049402
H 0.875548900661 1.062564435457 -2.542272049402
O -0.653713600623 0.045352112128 3.112532906157
H -0.075713600623 -0.490647887872 2.513532906157
H -1.013713600623 0.601352112128 2.377532906157
