10
Coordinates from XML
C 0.490711590119 0.06652878135 -2.311961918023
C 0.176711590119 -0.02347121865 -0.837961918023
O 0.794711590119 -0.90747121865 -0.178961918023
O -0.672288409881 0.80152878135 -0.395961918023
H 1.240711590119 -0.67447121865 -2.604961918023
H -0.417288409881 -0.10947121865 -2.896961918023
H 0.877711590119 1.06152878135 -2.548961918023
O -0.660799855462 0.048745529938 3.134452888115
H -0.082799855462 -0.487254470062 2.535452888115
H -1.020799855462 0.604745529938 2.399452888115
