10
Coordinates from XML
C 0.490712 0.0665288 -2.31196
C 0.176712 -0.0234712 -0.837962
O 0.794712 -0.907471 -0.178962
O -0.672288 0.801529 -0.395962
H 1.24071 -0.674471 -2.60496
H -0.417288 -0.109471 -2.89696
H 0.877712 1.06153 -2.54896
O -0.6608 0.0487455 3.13445
H -0.0827999 -0.487254 2.53545
H -1.0208 0.604746 2.39945
