10
Coordinates from XML
C 0.493349 0.065266 -2.32012
C 0.179349 -0.024734 -0.846119
O 0.797349 -0.908734 -0.187119
O -0.669651 0.800266 -0.404119
H 1.24335 -0.675734 -2.61312
H -0.414651 -0.110734 -2.90512
H 0.880349 1.06027 -2.55712
O -0.669441 0.0528833 3.16118
H -0.0914405 -0.483117 2.56218
H -1.02944 0.608883 2.42618
