10
Coordinates from XML
C 0.493348675974 0.065265951504 -2.320119241697
C 0.179348675974 -0.024734048496 -0.846119241697
O 0.797348675974 -0.908734048496 -0.187119241697
O -0.669651324026 0.800265951504 -0.404119241697
H 1.243348675974 -0.675734048496 -2.613119241697
H -0.414651324026 -0.110734048496 -2.905119241697
H 0.880348675974 1.060265951504 -2.557119241697
O -0.669440514588 0.052883310365 3.161181124179
H -0.091440514588 -0.483116689635 2.562181124179
H -1.029440514588 0.608883310365 2.426181124179
