10
Coordinates from XML
C 0.494227704592 0.064845008222 -2.322838349588
C 0.180227704592 -0.025154991778 -0.848838349588
O 0.798227704592 -0.909154991778 -0.189838349588
O -0.668772295408 0.799845008222 -0.406838349588
H 1.244227704592 -0.676154991778 -2.615838349588
H -0.413772295408 -0.111154991778 -2.907838349588
H 0.881227704592 1.059845008222 -2.559838349588
O -0.672320734297 0.054262570507 3.1700905362
H -0.094320734297 -0.481737429493 2.5710905362
H -1.032320734297 0.610262570507 2.4350905362
