10
Coordinates from XML
C 0.495986 0.0640031 -2.32828
C 0.181986 -0.0259969 -0.854277
O 0.799986 -0.909997 -0.195277
O -0.667014 0.799003 -0.412277
H 1.24599 -0.676997 -2.62128
H -0.412014 -0.111997 -2.91328
H 0.882986 1.059 -2.56528
O -0.678081 0.0570211 3.18791
H -0.100081 -0.478979 2.58891
H -1.03808 0.613021 2.45291
