10
Coordinates from XML
C 0.497744 0.0631612 -2.33371
C 0.183744 -0.0268388 -0.859715
O 0.801744 -0.910839 -0.200715
O -0.665256 0.798161 -0.417715
H 1.24774 -0.677839 -2.62671
H -0.410256 -0.112839 -2.91871
H 0.884744 1.05816 -2.57071
O -0.683842 0.0597796 3.20573
H -0.105842 -0.47622 2.60673
H -1.04384 0.61578 2.47073
