10
Coordinates from XML
C 0.498623 0.0627403 -2.33643
C 0.184623 -0.0272597 -0.862434
O 0.802623 -0.91126 -0.203434
O -0.664377 0.79774 -0.420434
H 1.24862 -0.67826 -2.62943
H -0.409377 -0.11326 -2.92143
H 0.885623 1.05774 -2.57343
O -0.686722 0.0611589 3.21464
H -0.108722 -0.474841 2.61564
H -1.04672 0.617159 2.47964
