10
Coordinates from XML
C 0.500381 0.0618984 -2.34187
C 0.186381 -0.0281016 -0.867872
O 0.804381 -0.912102 -0.208872
O -0.662619 0.796898 -0.425872
H 1.25038 -0.679102 -2.63487
H -0.407619 -0.114102 -2.92687
H 0.887381 1.0569 -2.57887
O -0.692482 0.0639174 3.23246
H -0.114482 -0.472083 2.63346
H -1.05248 0.619917 2.49746
