10
Coordinates from XML
C 0.50126 0.0614775 -2.34459
C 0.18726 -0.0285225 -0.870591
O 0.80526 -0.912523 -0.211591
O -0.66174 0.796477 -0.428591
H 1.25126 -0.679523 -2.63759
H -0.40674 -0.114523 -2.92959
H 0.88826 1.05648 -2.58159
O -0.695362 0.0652967 3.24137
H -0.117362 -0.470703 2.64237
H -1.05536 0.621297 2.50637
