10
Coordinates from XML
C 0.502139 0.0610565 -2.34731
C 0.188139 -0.0289435 -0.87331
O 0.806139 -0.912943 -0.21431
O -0.660861 0.796057 -0.43131
H 1.25214 -0.679943 -2.64031
H -0.405861 -0.114943 -2.93231
H 0.889139 1.05606 -2.58431
O -0.698243 0.0666759 3.25028
H -0.120243 -0.469324 2.65128
H -1.05824 0.622676 2.51528
