10
Coordinates from XML
C 0.503897019392 0.060214632121 -2.352748536392
C 0.189897019392 -0.029785367879 -0.878748536392
O 0.807897019392 -0.913785367879 -0.219748536392
O -0.659102980608 0.795214632121 -0.436748536392
H 1.253897019392 -0.680785367879 -2.645748536392
H -0.404102980608 -0.115785367879 -2.937748536392
H 0.890897019392 1.055214632121 -2.589748536392
O -0.704003151092 0.069434432071 3.268094068435
H -0.126003151092 -0.466565567929 2.669094068435
H -1.064003151092 0.625434432071 2.533094068435
