10
Coordinates from XML
C 0.50477604801 0.059793688839 -2.355467644283
C 0.19077604801 -0.030206311161 -0.881467644283
O 0.80877604801 -0.914206311161 -0.222467644283
O -0.65822395199 0.794793688839 -0.439467644283
H 1.25477604801 -0.681206311161 -2.648467644283
H -0.40322395199 -0.116206311161 -2.940467644283
H 0.89177604801 1.054793688839 -2.592467644283
O -0.706883370801 0.070813692213 3.277003480456
H -0.128883370801 -0.465186307787 2.678003480456
H -1.066883370801 0.626813692213 2.542003480456
