10
Coordinates from XML
C 0.505655 0.0593727 -2.35819
C 0.191655 -0.0306273 -0.884187
O 0.809655 -0.914627 -0.225187
O -0.657345 0.794373 -0.442187
H 1.25566 -0.681627 -2.65119
H -0.402345 -0.116627 -2.94319
H 0.892655 1.05437 -2.59519
O -0.709764 0.072193 3.28591
H -0.131764 -0.463807 2.68691
H -1.06976 0.628193 2.55091
