10
Coordinates from XML
C 0.508292 0.0581099 -2.36634
C 0.194292 -0.0318901 -0.892344
O 0.812292 -0.91589 -0.233344
O -0.654708 0.79311 -0.450344
H 1.25829 -0.68289 -2.65934
H -0.399708 -0.11789 -2.95134
H 0.895292 1.05311 -2.60334
O -0.718404 0.0763307 3.31264
H -0.140404 -0.459669 2.71364
H -1.0784 0.632331 2.57764
