10
Coordinates from XML
C 0.508292162483 0.058109915711 -2.366344075848
C 0.194292162483 -0.031890084289 -0.892344075848
O 0.812292162483 -0.915890084289 -0.233344075848
O -0.654707837517 0.793109915711 -0.450344075848
H 1.258292162483 -0.682890084289 -2.659344075848
H -0.399707837517 -0.117890084289 -2.951344075848
H 0.895292162483 1.053109915711 -2.603344075848
O -0.718404249636 0.076330732782 3.312641128542
H -0.140404249636 -0.459669267218 2.713641128542
H -1.078404249636 0.632330732782 2.577641128542
