10
Coordinates from XML
C 0.510929248338 0.056847085865 -2.374501399521
C 0.196929248338 -0.033152914135 -0.900501399521
O 0.814929248338 -0.917152914135 -0.241501399521
O -0.652070751662 0.791847085865 -0.458501399521
H 1.260929248338 -0.684152914135 -2.667501399521
H -0.397070751662 -0.119152914135 -2.959501399521
H 0.897929248338 1.051847085865 -2.611501399521
O -0.727044908762 0.080468513208 3.339369364606
H -0.149044908762 -0.455531486792 2.740369364606
H -1.087044908762 0.636468513208 2.604369364606
