10
Coordinates from XML
C 0.510929 0.0568471 -2.3745
C 0.196929 -0.0331529 -0.900501
O 0.814929 -0.917153 -0.241501
O -0.652071 0.791847 -0.458501
H 1.26093 -0.684153 -2.6675
H -0.397071 -0.119153 -2.9595
H 0.897929 1.05185 -2.6115
O -0.727045 0.0804685 3.33937
H -0.149045 -0.455531 2.74037
H -1.08704 0.636469 2.60437
