10
Coordinates from XML
C 0.511808 0.0564261 -2.37722
C 0.197808 -0.0335739 -0.903221
O 0.815808 -0.917574 -0.244221
O -0.651192 0.791426 -0.461221
H 1.26181 -0.684574 -2.67022
H -0.396192 -0.119574 -2.96222
H 0.898808 1.05143 -2.61422
O -0.729925 0.0818478 3.34828
H -0.151925 -0.454152 2.74928
H -1.08993 0.637848 2.61328
