10
Coordinates from XML
C 0.512687 0.0560052 -2.37994
C 0.198687 -0.0339948 -0.90594
O 0.816687 -0.917995 -0.24694
O -0.650313 0.791005 -0.46394
H 1.26269 -0.684995 -2.67294
H -0.395313 -0.119995 -2.96494
H 0.899687 1.05101 -2.61694
O -0.732805 0.083227 3.35719
H -0.154805 -0.452773 2.75819
H -1.09281 0.639227 2.62219
