10
Coordinates from XML
C 0.514445362811 0.055163312737 -2.385377831086
C 0.200445362811 -0.034836687263 -0.911377831086
O 0.818445362811 -0.918836687263 -0.252377831086
O -0.648554637189 0.790163312737 -0.469377831086
H 1.264445362811 -0.685836687263 -2.678377831086
H -0.393554637189 -0.120836687263 -2.970377831086
H 0.901445362811 1.050163312737 -2.622377831086
O -0.738565787596 0.085985553777 3.375007012691
H -0.160565787596 -0.450014446223 2.776007012691
H -1.098565787596 0.641985553777 2.640007012691
