10
Coordinates from XML
C 0.516203 0.0543214 -2.39082
C 0.202203 -0.0356786 -0.916816
O 0.820203 -0.919679 -0.257816
O -0.646797 0.789321 -0.474816
H 1.2662 -0.686679 -2.68382
H -0.391797 -0.121679 -2.97582
H 0.903203 1.04932 -2.62782
O -0.744326 0.0887441 3.39283
H -0.166326 -0.447256 2.79383
H -1.10433 0.644744 2.65783
