10
Coordinates from XML
C 0.517082448666 0.053900482891 -2.39353515476
C 0.203082448666 -0.036099517109 -0.91953515476
O 0.821082448666 -0.920099517109 -0.26053515476
O -0.645917551334 0.788900482891 -0.47753515476
H 1.267082448666 -0.687099517109 -2.68653515476
H -0.390917551334 -0.122099517109 -2.97853515476
H 0.904082448666 1.048900482891 -2.63053515476
O -0.747206446722 0.090123334204 3.401735248755
H -0.169206446722 -0.445876665796 2.802735248755
H -1.107206446722 0.646123334204 2.666735248755
