10
Coordinates from XML
C 0.517961477284 0.053479539609 -2.396254262651
C 0.203961477284 -0.036520460391 -0.922254262651
O 0.821961477284 -0.920520460391 -0.263254262651
O -0.645038522716 0.788479539609 -0.480254262651
H 1.267961477284 -0.687520460391 -2.689254262651
H -0.390038522716 -0.122520460391 -2.981254262651
H 0.904961477284 1.048479539609 -2.633254262651
O -0.750086666431 0.091502594346 3.410644660777
H -0.172086666431 -0.444497405654 2.811644660777
H -1.110086666431 0.647502594346 2.675644660777
