10
Coordinates from XML
C 0.542391 -0.0794732 0.408612
C -0.137039 -0.0265962 -0.993021
O -1.04721 0.861785 -1.15151
O 0.294148 -0.889155 -1.83987
H 0.13859 0.68883 1.06941
H 0.387939 -1.06815 0.853486
H 1.62317 0.05638 0.298035
O 0.28265 0.149008 2.97319
H -0.53215 -0.256168 2.63553
H 1.02178 -0.0884316 2.39062
