10
Coordinates from XML
C 0.542391 -0.0794732 0.389906
C -0.137039 -0.0265962 -1.01173
O -1.04721 0.861785 -1.17022
O 0.294148 -0.889155 -1.85857
H 0.13859 0.68883 1.0507
H 0.387939 -1.06815 0.83478
H 1.62317 0.05638 0.279329
O 0.28265 0.149008 3.03449
H -0.53215 -0.256168 2.69682
H 1.02178 -0.0884316 2.45191
