10
Coordinates from XML
C 0.497746 0.0631603 -2.33372
C 0.183746 -0.0268397 -0.859721
O 0.801746 -0.91084 -0.200721
O -0.665254 0.79816 -0.417721
H 1.24775 -0.67784 -2.62672
H -0.410254 -0.11284 -2.91872
H 0.884746 1.05816 -2.57072
O -0.683848 0.0597826 3.20575
H -0.105848 -0.476217 2.60675
H -1.04385 0.615783 2.47075
