10
Coordinates from XML
C 0.498554 0.0627731 -2.33622
C 0.184554 -0.0272269 -0.862222
O 0.802554 -0.911227 -0.203222
O -0.664446 0.797773 -0.420222
H 1.24855 -0.678227 -2.62922
H -0.409446 -0.113227 -2.92122
H 0.885554 1.05777 -2.57322
O -0.686497 0.0610514 3.21394
H -0.108497 -0.474949 2.61494
H -1.0465 0.617051 2.47894
