10
Coordinates from XML
C 0.499362982169 0.062385861214 -2.338723354346
C 0.185362982169 -0.027614138786 -0.864723354346
O 0.803362982169 -0.911614138786 -0.205723354346
O -0.663637017831 0.797385861214 -0.422723354346
H 1.249362982169 -0.678614138786 -2.631723354346
H -0.408637017831 -0.113614138786 -2.923723354346
H 0.886362982169 1.057385861214 -2.575723354346
O -0.689146952898 0.062320196316 3.222139244091
H -0.111146952898 -0.473679803684 2.623139244091
H -1.049146952898 0.618320196316 2.487139244091
