10
Coordinates from XML
C 0.500172 0.0619986 -2.34122
C 0.186172 -0.0280014 -0.867225
O 0.804172 -0.912001 -0.208225
O -0.662828 0.796999 -0.425225
H 1.25017 -0.679001 -2.63422
H -0.407828 -0.114001 -2.92622
H 0.887172 1.057 -2.57822
O -0.691797 0.063589 3.23034
H -0.113797 -0.472411 2.63134
H -1.0518 0.619589 2.49534
