10
Coordinates from XML
C 0.501788872836 0.061224167091 -2.346227385864
C 0.187788872836 -0.028775832909 -0.872227385864
O 0.805788872836 -0.912775832909 -0.213227385864
O -0.661211127164 0.796224167091 -0.430227385864
H 1.251788872836 -0.679775832909 -2.639227385864
H -0.406211127164 -0.114775832909 -2.931227385864
H 0.888788872836 1.056224167091 -2.583227385864
O -0.697095611185 0.066126596059 3.246726907137
H -0.119095611185 -0.469873403941 2.647726907137
H -1.057095611185 0.622126596059 2.511726907137
