10
Coordinates from XML
C 0.501789 0.0612242 -2.34623
C 0.187789 -0.0287758 -0.872227
O 0.805789 -0.912776 -0.213227
O -0.661211 0.796224 -0.430227
H 1.25179 -0.679776 -2.63923
H -0.406211 -0.114776 -2.93123
H 0.888789 1.05622 -2.58323
O -0.697096 0.0661266 3.24673
H -0.119096 -0.469873 2.64773
H -1.0571 0.622127 2.51173
