10
Coordinates from XML
C 0.503406133281 0.060449704343 -2.351230073543
C 0.189406133281 -0.029550295657 -0.877230073543
O 0.807406133281 -0.913550295657 -0.218230073543
O -0.659593866719 0.795449704343 -0.435230073543
H 1.253406133281 -0.680550295657 -2.644230073543
H -0.404593866719 -0.115550295657 -2.936230073543
H 0.890406133281 1.055449704343 -2.588230073543
O -0.70239471671 0.068664195888 3.263118682501
H -0.12439471671 -0.467335804112 2.664118682501
H -1.06239471671 0.624664195888 2.528118682501
