10
Coordinates from XML
C 0.503406 0.0604497 -2.35123
C 0.189406 -0.0295503 -0.87723
O 0.807406 -0.91355 -0.21823
O -0.659594 0.79545 -0.43523
H 1.25341 -0.68055 -2.64423
H -0.404594 -0.11555 -2.93623
H 0.890406 1.05545 -2.58823
O -0.702395 0.0686642 3.26312
H -0.124395 -0.467336 2.66412
H -1.06239 0.624664 2.52812
