10
Coordinates from XML
C 0.505023 0.0596752 -2.35623
C 0.191023 -0.0303248 -0.882233
O 0.809023 -0.914325 -0.223233
O -0.657977 0.794675 -0.440233
H 1.25502 -0.681325 -2.64923
H -0.402977 -0.116325 -2.94123
H 0.892023 1.05468 -2.59323
O -0.707694 0.0712018 3.27951
H -0.129694 -0.464798 2.68051
H -1.06769 0.627202 2.54451
