10
Coordinates from XML
C 0.507449 0.0585135 -2.36374
C 0.193449 -0.0314865 -0.889737
O 0.811449 -0.915486 -0.230737
O -0.655551 0.793514 -0.447737
H 1.25745 -0.682486 -2.65674
H -0.400551 -0.117486 -2.94874
H 0.894449 1.05351 -2.60074
O -0.715642 0.0750082 3.3041
H -0.137642 -0.460992 2.7051
H -1.07564 0.631008 2.5691
