10
Coordinates from XML
C 0.507449284393 0.058513547473 -2.36373679274
C 0.193449284393 -0.031486452527 -0.88973679274
O 0.811449284393 -0.915486452527 -0.23073679274
O -0.655550715607 0.793513547473 -0.44773679274
H 1.257449284393 -0.682486452527 -2.65673679274
H -0.400550715607 -0.117486452527 -2.94873679274
H 0.894449284393 1.053513547473 -2.60073679274
O -0.715642480521 0.075008195459 3.304098120911
H -0.137642480521 -0.460991804541 2.705098120911
H -1.075642480521 0.631008195459 2.569098120911
