10
Coordinates from XML
C 0.508257914615 0.058126316098 -2.366238136579
C 0.194257914615 -0.031873683902 -0.892238136579
O 0.812257914615 -0.915873683902 -0.233238136579
O -0.654742085385 0.793126316098 -0.450238136579
H 1.258257914615 -0.682873683902 -2.659238136579
H -0.399742085385 -0.117873683902 -2.951238136579
H 0.895257914615 1.053126316098 -2.603238136579
O -0.718292033283 0.076276995374 3.312294008593
H -0.140292033283 -0.459723004626 2.713294008593
H -1.078292033283 0.632276995374 2.577294008593
