10
Coordinates from XML
C 0.509066544838 0.057739084724 -2.368739480419
C 0.195066544838 -0.032260915276 -0.894739480419
O 0.813066544838 -0.916260915276 -0.235739480419
O -0.653933455162 0.792739084724 -0.452739480419
H 1.259066544838 -0.683260915276 -2.661739480419
H -0.398933455162 -0.118260915276 -2.953739480419
H 0.896066544838 1.052739084724 -2.605739480419
O -0.720941586046 0.077545795288 3.320489896275
H -0.142941586046 -0.458454204712 2.721489896275
H -1.080941586046 0.633545795288 2.585489896275
