10
Coordinates from XML
C 0.515536 0.0546412 -2.38875
C 0.201536 -0.0353588 -0.91475
O 0.819536 -0.919359 -0.25575
O -0.647464 0.789641 -0.47275
H 1.26554 -0.686359 -2.68175
H -0.392464 -0.121359 -2.97375
H 0.902536 1.04964 -2.62575
O -0.742138 0.0876962 3.38606
H -0.164138 -0.448304 2.78706
H -1.10214 0.643696 2.65106
