10
Coordinates from XML
C 0.517152847061 0.053866770983 -2.393752918812
C 0.203152847061 -0.036133229017 -0.919752918812
O 0.821152847061 -0.920133229017 -0.260752918812
O -0.645847152939 0.788866770983 -0.477752918812
H 1.267152847061 -0.687133229017 -2.686752918812
H -0.390847152939 -0.122133229017 -2.978752918812
H 0.904152847061 1.048866770983 -2.630752918812
O -0.747437113669 0.090233794432 3.402448773095
H -0.169437113669 -0.445766205568 2.803448773095
H -1.107437113669 0.646233794432 2.667448773095
