10
Coordinates from XML
C 0.517961 0.0534795 -2.39625
C 0.203961 -0.0365205 -0.922254
O 0.821961 -0.92052 -0.263254
O -0.645039 0.78848 -0.480254
H 1.26796 -0.68752 -2.68925
H -0.390039 -0.12252 -2.98125
H 0.904961 1.04848 -2.63325
O -0.750087 0.0915026 3.41064
H -0.172087 -0.444497 2.81164
H -1.11009 0.647503 2.67564
