10
Coordinates from XML
C -0.929305372305 0.711938621857 -0.388759351003
C 0.285754056376 -0.117521941592 -0.903172578559
O 1.243952954383 0.546468169459 -1.435831156145
O 0.188725240381 -1.386250012961 -0.735861185116
H -0.771675169143 1.779341154878 -0.549381064004
H -1.838420858475 0.390301016868 -0.907709060264
H -1.082911099171 0.515520624059 0.677347468575
O -0.681705811465 0.169429481324 2.80063494823
H 0.237608249139 -0.126640105079 2.897008930475
H -0.80042254394 1.00283818057 3.283770295645
