10
Coordinates from XML
C -0.929305 0.711939 -0.477615
C 0.285754 -0.117522 -0.992028
O 1.24395 0.546468 -1.52469
O 0.188725 -1.38625 -0.824717
H -0.771675 1.77934 -0.638237
H -1.83842 0.390301 -0.996565
H -1.08291 0.515521 0.588492
O -0.681706 0.169429 3.09178
H 0.237608 -0.12664 3.18815
H -0.800423 1.00284 3.57491
