10
Coordinates from XML
C -0.929305372305 0.711938621857 -0.515028065535
C 0.285754056376 -0.117521941592 -1.02944129309
O 1.243952954383 0.546468169459 -1.562099870676
O 0.188725240381 -1.386250012961 -0.862129899648
H -0.771675169143 1.779341154878 -0.675649778535
H -1.838420858475 0.390301016868 -1.033977774796
H -1.082911099171 0.515520624059 0.551078754044
O -0.681705811465 0.169429481324 3.214366233699
H 0.237608249139 -0.126640105079 3.310740215944
H -0.80042254394 1.00283818057 3.697501581113
