10
Coordinates from XML
C -0.929305372305 0.711938621857 -0.566470875159
C 0.285754056376 -0.117521941592 -1.080884102714
O 1.243952954383 0.546468169459 -1.6135426803
O 0.188725240381 -1.386250012961 -0.913572709272
H -0.771675169143 1.779341154878 -0.727092588159
H -1.838420858475 0.390301016868 -1.08542058442
H -1.082911099171 0.515520624059 0.49963594442
O -0.681705811465 0.169429481324 3.382923424075
H 0.237608249139 -0.126640105079 3.47929740632
H -0.80042254394 1.00283818057 3.866058771489
