10
Coordinates from XML
C -0.929305 0.711939 -0.585177
C 0.285754 -0.117522 -1.09959
O 1.24395 0.546468 -1.63225
O 0.188725 -1.38625 -0.932279
H -0.771675 1.77934 -0.745799
H -1.83842 0.390301 -1.10413
H -1.08291 0.515521 0.480929
O -0.681706 0.169429 3.44422
H 0.237608 -0.12664 3.54059
H -0.800423 1.00284 3.92735
