10
Coordinates from XML
C -0.929305372305 0.711938621857 -0.603883827613
C 0.285754056376 -0.117521941592 -1.118297055168
O 1.243952954383 0.546468169459 -1.650955632754
O 0.188725240381 -1.386250012961 -0.950985661726
H -0.771675169143 1.779341154878 -0.764505540613
H -1.838420858475 0.390301016868 -1.122833536873
H -1.082911099171 0.515520624059 0.462222991966
O -0.681705811465 0.169429481324 3.505510471621
H 0.237608249139 -0.126640105079 3.601884453866
H -0.80042254394 1.00283818057 3.988645819035
