10
Coordinates from XML
C -0.929305 0.711939 -0.63662
C 0.285754 -0.117522 -1.15103
O 1.24395 0.546468 -1.68369
O 0.188725 -1.38625 -0.983722
H -0.771675 1.77934 -0.797242
H -1.83842 0.390301 -1.15557
H -1.08291 0.515521 0.429487
O -0.681706 0.169429 3.61277
H 0.237608 -0.12664 3.70915
H -0.800423 1.00284 4.09591
