10
Coordinates from XML
C -0.929305372305 0.711938621857 -0.63662016101
C 0.285754056376 -0.117521941592 -1.151033388565
O 1.243952954383 0.546468169459 -1.683691966151
O 0.188725240381 -1.386250012961 -0.983721995123
H -0.771675169143 1.779341154878 -0.79724187401
H -1.838420858475 0.390301016868 -1.15556987027
H -1.082911099171 0.515520624059 0.429486658569
O -0.681705811465 0.169429481324 3.612774138224
H 0.237608249139 -0.126640105079 3.709148120469
H -0.80042254394 1.00283818057 4.095909485638
