10
Coordinates from XML
C -0.929305372305 0.711938621857 -0.781595351768
C 0.285754056376 -0.117521941592 -1.296008579323
O 1.243952954383 0.546468169459 -1.828667156909
O 0.188725240381 -1.386250012961 -1.128697185881
H -0.771675169143 1.779341154878 -0.942217064768
H -1.838420858475 0.390301016868 -1.300545061029
H -1.082911099171 0.515520624059 0.284511467811
O -0.681705811465 0.169429481324 4.087798947466
H 0.237608249139 -0.126640105079 4.184172929711
H -0.80042254394 1.00283818057 4.57093429488
