10
Coordinates from XML
C -0.929305 0.711939 -0.800302
C 0.285754 -0.117522 -1.31472
O 1.24395 0.546468 -1.84737
O 0.188725 -1.38625 -1.1474
H -0.771675 1.77934 -0.960924
H -1.83842 0.390301 -1.31925
H -1.08291 0.515521 0.265805
O -0.681706 0.169429 4.14909
H 0.237608 -0.12664 4.24547
H -0.800423 1.00284 4.63223
