10
Coordinates from XML
C -0.929305372305 0.711938621857 -0.833038161392
C 0.285754056376 -0.117521941592 -1.347451388947
O 1.243952954383 0.546468169459 -1.880109966533
O 0.188725240381 -1.386250012961 -1.180139995505
H -0.771675169143 1.779341154878 -0.993659874392
H -1.838420858475 0.390301016868 -1.351987870653
H -1.082911099171 0.515520624059 0.233068658187
O -0.681705811465 0.169429481324 4.256356137842
H 0.237608249139 -0.126640105079 4.352730120087
H -0.80042254394 1.00283818057 4.739491485256
