10
Coordinates from XML
C -0.929305 0.711939 -0.870451
C 0.285754 -0.117522 -1.38486
O 1.24395 0.546468 -1.91752
O 0.188725 -1.38625 -1.21755
H -0.771675 1.77934 -1.03107
H -1.83842 0.390301 -1.3894
H -1.08291 0.515521 0.195656
O -0.681706 0.169429 4.37894
H 0.237608 -0.12664 4.47532
H -0.800423 1.00284 4.86208
