10
Coordinates from XML
C -0.929305 0.711939 -0.889158
C 0.285754 -0.117522 -1.40357
O 1.24395 0.546468 -1.93623
O 0.188725 -1.38625 -1.23626
H -0.771675 1.77934 -1.04978
H -1.83842 0.390301 -1.40811
H -1.08291 0.515521 0.176949
O -0.681706 0.169429 4.44024
H 0.237608 -0.12664 4.53661
H -0.800423 1.00284 4.92337
