10
Coordinates from XML
C -0.929305372305 0.711938621857 -0.889157590072
C 0.285754056376 -0.117521941592 -1.403570817628
O 1.243952954383 0.546468169459 -1.936229395214
O 0.188725240381 -1.386250012961 -1.236259424185
H -0.771675169143 1.779341154878 -1.049779303073
H -1.838420858475 0.390301016868 -1.408107299333
H -1.082911099171 0.515520624059 0.176949229506
O -0.681705811465 0.169429481324 4.440236709161
H 0.237608249139 -0.126640105079 4.536610691406
H -0.80042254394 1.00283818057 4.923372056575
