10
Coordinates from XML
C -0.929305372305 0.711938621857 -0.903187447243
C 0.285754056376 -0.117521941592 -1.417600674798
O 1.243952954383 0.546468169459 -1.950259252384
O 0.188725240381 -1.386250012961 -1.250289281356
H -0.771675169143 1.779341154878 -1.063809160243
H -1.838420858475 0.390301016868 -1.422137156503
H -1.082911099171 0.515520624059 0.162919372336
O -0.681705811465 0.169429481324 4.486206851991
H 0.237608249139 -0.126640105079 4.582580834236
H -0.80042254394 1.00283818057 4.969342199405
