10
Coordinates from XML
C -0.929305 0.711939 -0.903187
C 0.285754 -0.117522 -1.4176
O 1.24395 0.546468 -1.95026
O 0.188725 -1.38625 -1.25029
H -0.771675 1.77934 -1.06381
H -1.83842 0.390301 -1.42214
H -1.08291 0.515521 0.162919
O -0.681706 0.169429 4.48621
H 0.237608 -0.12664 4.58258
H -0.800423 1.00284 4.96934
