10
Coordinates from XML
C 0.185974 -1.07463 -0.172375
C 0.0167662 0.323658 -0.839582
O 0.417954 1.33219 -0.15792
O -0.51292 0.308557 -2.00846
H 0.65467 -0.986867 0.808755
H -0.793648 -1.55382 -0.0725587
H 0.792787 -1.71824 -0.817589
O -0.126895 -0.766295 2.59232
H 0.110703 -0.0821116 1.94616
H 0.342584 -0.595514 3.42449
