10
Coordinates from XML
C 0.185974 -1.07463 -0.214465
C 0.0167662 0.323658 -0.881672
O 0.417954 1.33219 -0.200009
O -0.51292 0.308557 -2.05055
H 0.65467 -0.986867 0.766666
H -0.793648 -1.55382 -0.114648
H 0.792787 -1.71824 -0.859678
O -0.126895 -0.766295 2.73023
H 0.110703 -0.0821116 2.08407
H 0.342584 -0.595514 3.5624
