10
Coordinates from XML
C 0.185973747838 -1.074626218869 -0.233171154753
C 0.016766199733 0.323658048549 -0.900378111689
O 0.417953808504 1.332190742461 -0.218715831767
O -0.512919676978 0.308556942202 -2.069259389317
H 0.654670424773 -0.98686748883 0.747959118691
H -0.793648483563 -1.553820833231 -0.13335471227
H 0.792786670012 -1.718237966455 -0.878384682035
O -0.126894531487 -0.766294865104 2.791524873132
H 0.110703092726 -0.082111614887 2.145363797579
H 0.342584020326 -0.595513566083 3.623695002229
