10
Coordinates from XML
C 0.185973747838 -1.074626218869 -0.29396720249
C 0.016766199733 0.323658048549 -0.961174159426
O 0.417953808504 1.332190742461 -0.279511879505
O -0.512919676978 0.308556942202 -2.130055437054
H 0.654670424773 -0.98686748883 0.687163070954
H -0.793648483563 -1.553820833231 -0.194150760007
H 0.792786670012 -1.718237966455 -0.939180729773
O -0.126894531487 -0.766294865104 2.990728825395
H 0.110703092726 -0.082111614887 2.344567749841
H 0.342584020326 -0.595513566083 3.822898954492
