10
Coordinates from XML
C 0.185973747838 -1.074626218869 -0.312673678717
C 0.016766199733 0.323658048549 -0.979880635653
O 0.417953808504 1.332190742461 -0.298218355732
O -0.512919676978 0.308556942202 -2.148761913281
H 0.654670424773 -0.98686748883 0.668456594727
H -0.793648483563 -1.553820833231 -0.212857236234
H 0.792786670012 -1.718237966455 -0.957887206
O -0.126894531487 -0.766294865104 3.052022349168
H 0.110703092726 -0.082111614887 2.405861273614
H 0.342584020326 -0.595513566083 3.884192478265
