10
Coordinates from XML
C -0.871968 0.426076 -0.0252311
C 0.298314 -0.0945582 -0.913135
O 1.44031 -0.206227 -0.34205
O -0.0155373 -0.35392 -2.13023
H -0.537056 0.610469 0.996448
H -1.27473 1.34949 -0.454573
H -1.68519 -0.307013 -0.022857
O -0.749848 0.180169 2.78467
H -0.279439 0.185555 3.63365
H -0.104654 0.2447 2.06242
