10
Coordinates from XML
C -0.87196849834 0.426075801586 -0.071997298953
C 0.29831409422 -0.094558234907 -0.959901609014
O 1.440305388204 -0.206227243655 -0.388815737241
O -0.015537264791 -0.353919792956 -2.176991383535
H -0.537056109989 0.610469104973 0.949681508173
H -1.274726512646 1.349494336379 -0.50133947996
H -1.685192366409 -0.307013417924 -0.069623150787
O -0.749847992515 0.180169013052 2.937900440139
H -0.279438975139 0.185554518181 3.786882088454
H -0.104653576525 0.244699563123 2.215651549414
