10
Coordinates from XML
C -0.871968 0.426076 -0.0719973
C 0.298314 -0.0945582 -0.959902
O 1.44031 -0.206227 -0.388816
O -0.0155373 -0.35392 -2.17699
H -0.537056 0.610469 0.949682
H -1.27473 1.34949 -0.501339
H -1.68519 -0.307013 -0.0696232
O -0.749848 0.180169 2.9379
H -0.279439 0.185555 3.78688
H -0.104654 0.2447 2.21565
