10
Coordinates from XML
C -0.87196849834 0.426075801586 -0.081350537067
C 0.29831409422 -0.094558234907 -0.969254847128
O 1.440305388204 -0.206227243655 -0.398168975355
O -0.015537264791 -0.353919792956 -2.186344621648
H -0.537056109989 0.610469104973 0.94032827006
H -1.274726512646 1.349494336379 -0.510692718073
H -1.685192366409 -0.307013417924 -0.0789763889
O -0.749847992515 0.180169013052 2.968547202025
H -0.279438975139 0.185554518181 3.81752885034
H -0.104653576525 0.244699563123 2.246298311301
