10
Coordinates from XML
C -0.87196849834 0.426075801586 -0.114086870464
C 0.29831409422 -0.094558234907 -1.001991180525
O 1.440305388204 -0.206227243655 -0.430905308752
O -0.015537264791 -0.353919792956 -2.219080955045
H -0.537056109989 0.610469104973 0.907591936663
H -1.274726512646 1.349494336379 -0.54342905147
H -1.685192366409 -0.307013417924 -0.111712722297
O -0.749847992515 0.180169013052 3.075810868628
H -0.279438975139 0.185554518181 3.924792516943
H -0.104653576525 0.244699563123 2.353561977904
