10
Coordinates from XML
C -0.871968 0.426076 -0.12344
C 0.298314 -0.0945582 -1.01134
O 1.44031 -0.206227 -0.440259
O -0.0155373 -0.35392 -2.22843
H -0.537056 0.610469 0.898239
H -1.27473 1.34949 -0.552782
H -1.68519 -0.307013 -0.121066
O -0.749848 0.180169 3.10646
H -0.279439 0.185555 3.95544
H -0.104654 0.2447 2.38421
