10
Coordinates from XML
C -0.87196849834 0.426075801586 -0.132793346691
C 0.29831409422 -0.094558234907 -1.020697656752
O 1.440305388204 -0.206227243655 -0.449611784979
O -0.015537264791 -0.353919792956 -2.237787431272
H -0.537056109989 0.610469104973 0.888885460436
H -1.274726512646 1.349494336379 -0.562135527697
H -1.685192366409 -0.307013417924 -0.130419198524
O -0.749847992515 0.180169013052 3.137104392402
H -0.279438975139 0.185554518181 3.986086040716
H -0.104653576525 0.244699563123 2.414855501677
