10
Coordinates from XML
C -0.87196849834 0.426075801586 -0.146823203861
C 0.29831409422 -0.094558234907 -1.034727513922
O 1.440305388204 -0.206227243655 -0.463641642149
O -0.015537264791 -0.353919792956 -2.251817288443
H -0.537056109989 0.610469104973 0.874855603266
H -1.274726512646 1.349494336379 -0.576165384867
H -1.685192366409 -0.307013417924 -0.144449055695
O -0.749847992515 0.180169013052 3.183074535231
H -0.279438975139 0.185554518181 4.032056183546
H -0.104653576525 0.244699563123 2.460825644507
