10
Coordinates from XML
C -0.87196849834 0.426075801586 -0.156176441974
C 0.29831409422 -0.094558234907 -1.044080752035
O 1.440305388204 -0.206227243655 -0.472994880262
O -0.015537264791 -0.353919792956 -2.261170526556
H -0.537056109989 0.610469104973 0.865502365152
H -1.274726512646 1.349494336379 -0.585518622981
H -1.685192366409 -0.307013417924 -0.153802293808
O -0.749847992515 0.180169013052 3.213721297118
H -0.279438975139 0.185554518181 4.062702945433
H -0.104653576525 0.244699563123 2.491472406393
