10
Coordinates from XML
C -0.87196849834 0.426075801586 -0.207619251598
C 0.29831409422 -0.094558234907 -1.095523561659
O 1.440305388204 -0.206227243655 -0.524437689886
O -0.015537264791 -0.353919792956 -2.31261333618
H -0.537056109989 0.610469104973 0.814059555528
H -1.274726512646 1.349494336379 -0.636961432605
H -1.685192366409 -0.307013417924 -0.205245103432
O -0.749847992515 0.180169013052 3.382278487494
H -0.279438975139 0.185554518181 4.231260135809
H -0.104653576525 0.244699563123 2.660029596769
