10
Coordinates from XML
C -0.87196849834 0.426075801586 -0.268415299336
C 0.29831409422 -0.094558234907 -1.156319609396
O 1.440305388204 -0.206227243655 -0.585233737624
O -0.015537264791 -0.353919792956 -2.373409383917
H -0.537056109989 0.610469104973 0.753263507791
H -1.274726512646 1.349494336379 -0.697757480342
H -1.685192366409 -0.307013417924 -0.266041151169
O -0.749847992515 0.180169013052 3.581482439757
H -0.279438975139 0.185554518181 4.430464088071
H -0.104653576525 0.244699563123 2.859233549032
