10
Coordinates from XML
C -0.87196849834 0.426075801586 -0.291798394619
C 0.29831409422 -0.094558234907 -1.17970270468
O 1.440305388204 -0.206227243655 -0.608616832907
O -0.015537264791 -0.353919792956 -2.396792479201
H -0.537056109989 0.610469104973 0.729880412507
H -1.274726512646 1.349494336379 -0.721140575626
H -1.685192366409 -0.307013417924 -0.289424246453
O -0.749847992515 0.180169013052 3.658099344473
H -0.279438975139 0.185554518181 4.507080992788
H -0.104653576525 0.244699563123 2.935850453748
