10
Coordinates from XML
C -0.87196849834 0.426075801586 -0.310504870846
C 0.29831409422 -0.094558234907 -1.198409180907
O 1.440305388204 -0.206227243655 -0.627323309134
O -0.015537264791 -0.353919792956 -2.415498955428
H -0.537056109989 0.610469104973 0.71117393628
H -1.274726512646 1.349494336379 -0.739847051853
H -1.685192366409 -0.307013417924 -0.30813072268
O -0.749847992515 0.180169013052 3.719392868246
H -0.279438975139 0.185554518181 4.568374516561
H -0.104653576525 0.244699563123 2.997143977521
