10
Coordinates from XML
C -0.871968 0.426076 -0.319858
C 0.298314 -0.0945582 -1.20776
O 1.44031 -0.206227 -0.636677
O -0.0155373 -0.35392 -2.42485
H -0.537056 0.610469 0.701821
H -1.27473 1.34949 -0.7492
H -1.68519 -0.307013 -0.317484
O -0.749848 0.180169 3.75004
H -0.279439 0.185555 4.59902
H -0.104654 0.2447 3.02779
