10
Coordinates from XML
C -0.87196849834 0.426075801586 -0.338564585186
C 0.29831409422 -0.094558234907 -1.226468895247
O 1.440305388204 -0.206227243655 -0.655383023474
O -0.015537264791 -0.353919792956 -2.443558669768
H -0.537056109989 0.610469104973 0.68311422194
H -1.274726512646 1.349494336379 -0.767906766193
H -1.685192366409 -0.307013417924 -0.33619043702
O -0.749847992515 0.180169013052 3.811333153906
H -0.279438975139 0.185554518181 4.660314802221
H -0.104653576525 0.244699563123 3.089084263181
