10
Coordinates from XML
C -0.871968 0.426076 -0.371301
C 0.298314 -0.0945582 -1.25921
O 1.44031 -0.206227 -0.688119
O -0.0155373 -0.35392 -2.4763
H -0.537056 0.610469 0.650378
H -1.27473 1.34949 -0.800643
H -1.68519 -0.307013 -0.368927
O -0.749848 0.180169 3.9186
H -0.279439 0.185555 4.76758
H -0.104654 0.2447 3.19635
