10
Coordinates from XML
C -0.87196849834 0.426075801586 -0.371300918584
C 0.29831409422 -0.094558234907 -1.259205228644
O 1.440305388204 -0.206227243655 -0.688119356871
O -0.015537264791 -0.353919792956 -2.476295003165
H -0.537056109989 0.610469104973 0.650377888543
H -1.274726512646 1.349494336379 -0.80064309959
H -1.685192366409 -0.307013417924 -0.368926770417
O -0.749847992515 0.180169013052 3.918596820509
H -0.279438975139 0.185554518181 4.767578468823
H -0.104653576525 0.244699563123 3.196347929784
