10
Coordinates from XML
C 0.50372958537 0.060294811793 -2.352230611079
C 0.18972958537 -0.029705188207 -0.878230611079
O 0.80772958537 -0.913705188207 -0.219230611079
O -0.65927041463 0.795294811793 -0.436230611079
H 1.25372958537 -0.680705188207 -2.645230611079
H -0.40427041463 -0.115705188207 -2.937230611079
H 0.89072958537 1.055294811793 -2.589230611079
O -0.703454537814 0.069171715853 3.266397037574
H -0.125454537814 -0.466828284147 2.667397037574
H -1.063454537814 0.625171715853 2.531397037574
