10
Coordinates from XML
C 0.45391796367 0.084148264438 -2.198147830576
C 0.13991796367 -0.005851735562 -0.724147830576
O 0.75791796367 -0.889851735562 -0.065147830576
O -0.70908203633 0.819148264438 -0.282147830576
H 1.20391796367 -0.656851735562 -2.491147830576
H -0.45408203633 -0.091851735562 -2.783147830576
H 0.84091796367 1.079148264438 -2.435147830576
O -0.540242087656 -0.00898635887 2.761530356363
H 0.037757912344 -0.54498635887 2.162530356363
H -0.900242087656 0.54701364113 2.026530356363
