10
Coordinates from XML
C 0.456882941152 0.082728416066 -2.207319424653
C 0.142882941152 -0.007271583934 -0.733319424653
O 0.760882941152 -0.891271583934 -0.074319424653
O -0.706117058848 0.817728416066 -0.291319424653
H 1.206882941152 -0.658271583934 -2.500319424653
H -0.451117058848 -0.093271583934 -2.792319424653
H 0.843882941152 1.077728416066 -2.444319424653
O -0.549957114452 -0.004334092518 2.79158194453
H 0.028042885548 -0.540334092518 2.19258194453
H -0.909957114452 0.551665907482 2.05658194453
