10
Coordinates from XML
C 0.459847918635 0.081308567695 -2.216491018731
C 0.145847918635 -0.008691432305 -0.742491018731
O 0.763847918635 -0.892691432305 -0.083491018731
O -0.703152081365 0.816308567695 -0.300491018731
H 1.209847918635 -0.659691432305 -2.509491018731
H -0.448152081365 -0.094691432305 -2.801491018731
H 0.846847918635 1.076308567695 -2.453491018731
O -0.559672141247 0.000318173835 2.821633532698
H 0.018327858753 -0.535681826165 2.222633532698
H -0.919672141247 0.556318173835 2.086633532698
