10
Coordinates from XML
C 0.459848 0.0813086 -2.21649
C 0.145848 -0.00869143 -0.742491
O 0.763848 -0.892691 -0.083491
O -0.703152 0.816309 -0.300491
H 1.20985 -0.659691 -2.50949
H -0.448152 -0.0946914 -2.80149
H 0.846848 1.07631 -2.45349
O -0.559672 0.000318174 2.82163
H 0.0183279 -0.535682 2.22263
H -0.919672 0.556318 2.08663
