10
Coordinates from XML
C 0.462813 0.0798887 -2.22566
C 0.148813 -0.0101113 -0.751663
O 0.766813 -0.894111 -0.0926626
O -0.700187 0.814889 -0.309663
H 1.21281 -0.661111 -2.51866
H -0.445187 -0.0961113 -2.81066
H 0.849813 1.07489 -2.46266
O -0.569387 0.00497044 2.85169
H 0.00861283 -0.53103 2.25269
H -0.929387 0.56097 2.11669
