10
Coordinates from XML
C 0.471707828563 0.075629174208 -2.253177395041
C 0.157707828563 -0.014370825792 -0.779177395041
O 0.775707828563 -0.898370825792 -0.120177395041
O -0.691292171437 0.810629174208 -0.337177395041
H 1.221707828563 -0.665370825792 -2.546177395041
H -0.436292171437 -0.100370825792 -2.838177395041
H 0.858707828563 1.070629174208 -2.490177395041
O -0.598532248427 0.018927239245 2.941839885367
H -0.020532248427 -0.517072760755 2.342839885367
H -0.958532248427 0.574927239245 2.206839885367
