10
Coordinates from XML
C 0.477637783527 0.072789477464 -2.271520583196
C 0.163637783527 -0.017210522536 -0.797520583196
O 0.781637783527 -0.901210522536 -0.138520583196
O -0.685362216473 0.807789477464 -0.355520583196
H 1.227637783527 -0.668210522536 -2.564520583196
H -0.430362216473 -0.103210522536 -2.856520583196
H 0.864637783527 1.067789477464 -2.508520583196
O -0.617962302017 0.028231771951 3.001943061702
H -0.039962302017 -0.507768228049 2.402943061702
H -0.977962302017 0.584231771951 2.266943061702
