10
Coordinates from XML
C 0.480602761009 0.071369629093 -2.280692177274
C 0.166602761009 -0.018630370907 -0.806692177274
O 0.784602761009 -0.902630370907 -0.147692177274
O -0.682397238991 0.806369629093 -0.364692177274
H 1.230602761009 -0.669630370907 -2.573692177274
H -0.427397238991 -0.104630370907 -2.865692177274
H 0.867602761009 1.066369629093 -2.517692177274
O -0.627677328813 0.032884038303 3.031994649869
H -0.049677328813 -0.503115961697 2.432994649869
H -0.987677328813 0.588884038303 2.296994649869
