10
Coordinates from XML
C 0.483568 0.0699498 -2.28986
C 0.169568 -0.0200502 -0.815864
O 0.787568 -0.90405 -0.156864
O -0.679432 0.80495 -0.373864
H 1.23357 -0.67105 -2.58286
H -0.424432 -0.10605 -2.87486
H 0.870568 1.06495 -2.52686
O -0.637392 0.0375363 3.06205
H -0.0593924 -0.498464 2.46305
H -0.997392 0.593536 2.32705
