10
Coordinates from XML
C 0.483567738491 0.069949780721 -2.289863771351
C 0.169567738491 -0.020050219279 -0.815863771351
O 0.787567738491 -0.904050219279 -0.156863771351
O -0.679432261509 0.804949780721 -0.373863771351
H 1.233567738491 -0.671050219279 -2.582863771351
H -0.424432261509 -0.106050219279 -2.874863771351
H 0.870567738491 1.064949780721 -2.526863771351
O -0.637392355608 0.037536304656 3.062046238036
H -0.059392355608 -0.498463695344 2.463046238036
H -0.997392355608 0.593536304656 2.327046238036
