10
Coordinates from XML
C 0.489497693456 0.067110083978 -2.308206959506
C 0.175497693456 -0.022889916022 -0.834206959506
O 0.793497693456 -0.906889916022 -0.175206959506
O -0.673502306544 0.802110083978 -0.392206959506
H 1.239497693456 -0.673889916022 -2.601206959506
H -0.418502306544 -0.108889916022 -2.893206959506
H 0.876497693456 1.062110083978 -2.545206959506
O -0.656822409198 0.046840837361 3.122149414371
H -0.078822409198 -0.489159162639 2.523149414371
H -1.016822409198 0.602840837361 2.387149414371
