10
Coordinates from XML
C 0.492462670938 0.065690235606 -2.317378553584
C 0.178462670938 -0.024309764394 -0.843378553584
O 0.796462670938 -0.908309764394 -0.184378553584
O -0.670537329062 0.800690235606 -0.401378553584
H 1.242462670938 -0.675309764394 -2.610378553584
H -0.415537329062 -0.110309764394 -2.902378553584
H 0.879462670938 1.060690235606 -2.554378553584
O -0.666537435993 0.051493103714 3.152201002538
H -0.088537435993 -0.484506896286 2.553201002538
H -1.026537435993 0.607493103714 2.417201002538
