10
Coordinates from XML
C 0.492463 0.0656902 -2.31738
C 0.178463 -0.0243098 -0.843379
O 0.796463 -0.90831 -0.184379
O -0.670537 0.80069 -0.401379
H 1.24246 -0.67531 -2.61038
H -0.415537 -0.11031 -2.90238
H 0.879463 1.06069 -2.55438
O -0.666537 0.0514931 3.1522
H -0.0885374 -0.484507 2.5532
H -1.02654 0.607493 2.4172
