10
Coordinates from XML
C 0.49542764842 0.064270387234 -2.326550147662
C 0.18142764842 -0.025729612766 -0.852550147662
O 0.79942764842 -0.909729612766 -0.193550147662
O -0.66757235158 0.799270387234 -0.410550147662
H 1.24542764842 -0.676729612766 -2.619550147662
H -0.41257235158 -0.111729612766 -2.911550147662
H 0.88242764842 1.059270387234 -2.563550147662
O -0.676252462788 0.056145370066 3.182252590705
H -0.098252462788 -0.479854629934 2.583252590705
H -1.036252462788 0.612145370066 2.447252590705
