10
Coordinates from XML
C 0.495428 0.0642704 -2.32655
C 0.181428 -0.0257296 -0.85255
O 0.799428 -0.90973 -0.19355
O -0.667572 0.79927 -0.41055
H 1.24543 -0.67673 -2.61955
H -0.412572 -0.11173 -2.91155
H 0.882428 1.05927 -2.56355
O -0.676252 0.0561454 3.18225
H -0.0982525 -0.479855 2.58325
H -1.03625 0.612145 2.44725
