10
Coordinates from XML
C 0.498393 0.0628505 -2.33572
C 0.184393 -0.0271495 -0.861722
O 0.802393 -0.911149 -0.202722
O -0.664607 0.797851 -0.419722
H 1.24839 -0.678149 -2.62872
H -0.409607 -0.113149 -2.92072
H 0.885393 1.05785 -2.57272
O -0.685967 0.0607976 3.2123
H -0.107967 -0.475202 2.6133
H -1.04597 0.616798 2.4773
