10
Coordinates from XML
C 0.501357603384 0.061430690491 -2.344893335817
C 0.187357603384 -0.028569309509 -0.870893335817
O 0.805357603384 -0.912569309509 -0.211893335817
O -0.661642396616 0.796430690491 -0.428893335817
H 1.251357603384 -0.679569309509 -2.637893335817
H -0.406642396616 -0.114569309509 -2.929893335817
H 0.888357603384 1.056430690491 -2.581893335817
O -0.695682516378 0.065449902771 3.24235576704
H -0.117682516378 -0.470550097229 2.64335576704
H -1.055682516378 0.621449902771 2.50735576704
