10
Coordinates from XML
C 0.504323 0.0600108 -2.35406
C 0.190323 -0.0299892 -0.880065
O 0.808323 -0.913989 -0.221065
O -0.658677 0.795011 -0.438065
H 1.25432 -0.680989 -2.64706
H -0.403677 -0.115989 -2.93906
H 0.891323 1.05501 -2.59106
O -0.705398 0.0701022 3.27241
H -0.127398 -0.465898 2.67341
H -1.0654 0.626102 2.53741
