10
Coordinates from XML
C 0.510253 0.0571711 -2.37241
C 0.196253 -0.0328289 -0.898408
O 0.814253 -0.916829 -0.239408
O -0.652747 0.792171 -0.456408
H 1.26025 -0.683829 -2.66541
H -0.397747 -0.118829 -2.95741
H 0.897253 1.05217 -2.60941
O -0.724828 0.0794067 3.33251
H -0.146828 -0.456593 2.73351
H -1.08483 0.635407 2.59751
