10
Coordinates from XML
C 0.51025253583 0.057171145376 -2.37240811805
C 0.19625253583 -0.032828854624 -0.89840811805
O 0.81425253583 -0.916828854624 -0.23940811805
O -0.65274746417 0.792171145376 -0.45640811805
H 1.26025253583 -0.683828854624 -2.66540811805
H -0.39774746417 -0.118828854624 -2.95740811805
H 0.89725253583 1.052171145376 -2.60940811805
O -0.724827596764 0.079406701829 3.332510531542
H -0.146827596764 -0.456593298171 2.733510531542
H -1.084827596764 0.635406701829 2.597510531542
