10
Coordinates from XML
C 0.513217513312 0.055751297004 -2.381579712127
C 0.199217513312 -0.034248702996 -0.907579712127
O 0.817217513312 -0.918248702996 -0.248579712127
O -0.649782486688 0.790751297004 -0.465579712127
H 1.263217513312 -0.685248702996 -2.674579712127
H -0.394782486688 -0.120248702996 -2.966579712127
H 0.900217513312 1.050751297004 -2.618579712127
O -0.734542623559 0.084058968182 3.362562119709
H -0.156542623559 -0.451941031818 2.763562119709
H -1.094542623559 0.640058968182 2.627562119709
