10
Coordinates from XML
C 0.513218 0.0557513 -2.38158
C 0.199218 -0.0342487 -0.90758
O 0.817218 -0.918249 -0.24858
O -0.649782 0.790751 -0.46558
H 1.26322 -0.685249 -2.67458
H -0.394782 -0.120249 -2.96658
H 0.900218 1.05075 -2.61858
O -0.734543 0.084059 3.36256
H -0.156543 -0.451941 2.76356
H -1.09454 0.640059 2.62756
