10
Coordinates from XML
C 0.516182490795 0.054331448632 -2.390751306205
C 0.202182490795 -0.035668551368 -0.916751306205
O 0.820182490795 -0.919668551368 -0.257751306205
O -0.646817509205 0.789331448632 -0.474751306205
H 1.266182490795 -0.686668551368 -2.683751306205
H -0.391817509205 -0.121668551368 -2.975751306205
H 0.903182490795 1.049331448632 -2.627751306205
O -0.744257650354 0.088711234534 3.392613707876
H -0.166257650354 -0.447288765466 2.793613707876
H -1.104257650354 0.644711234534 2.657613707876
