10
Coordinates from XML
C 0.516182 0.0543314 -2.39075
C 0.202182 -0.0356686 -0.916751
O 0.820182 -0.919669 -0.257751
O -0.646818 0.789331 -0.474751
H 1.26618 -0.686669 -2.68375
H -0.391818 -0.121669 -2.97575
H 0.903182 1.04933 -2.62775
O -0.744258 0.0887112 3.39261
H -0.166258 -0.447289 2.79361
H -1.10426 0.644711 2.65761
