10
Coordinates from XML
C 0.519147468277 0.05291160026 -2.399922900282
C 0.205147468277 -0.03708839974 -0.925922900282
O 0.823147468277 -0.92108839974 -0.266922900282
O -0.643852531723 0.78791160026 -0.483922900282
H 1.269147468277 -0.68808839974 -2.692922900282
H -0.388852531723 -0.12308839974 -2.984922900282
H 0.906147468277 1.04791160026 -2.636922900282
O -0.753972677149 0.093363500887 3.422665296044
H -0.175972677149 -0.442636499113 2.823665296044
H -1.113972677149 0.649363500887 2.687665296044
