10
Coordinates from XML
C 0.525077423241 0.050071903517 -2.418266088437
C 0.211077423241 -0.039928096483 -0.944266088437
O 0.829077423241 -0.923928096483 -0.285266088437
O -0.637922576759 0.785071903517 -0.502266088437
H 1.275077423241 -0.690928096483 -2.711266088437
H -0.382922576759 -0.125928096483 -3.003266088437
H 0.912077423241 1.045071903517 -2.655266088437
O -0.773402730739 0.102668033592 3.482768472378
H -0.195402730739 -0.433331966408 2.883768472378
H -1.133402730739 0.658668033592 2.747768472378
