10
Coordinates from XML
C 1.2325 -0.218361 -0.630536
C -0.301232 0.0421487 -0.724298
O -0.919077 0.211065 0.385877
O -0.779158 0.0564143 -1.91529
H 1.57047 -0.201551 0.406522
H 1.46737 -1.18887 -1.0802
H 1.76978 0.540566 -1.20857
O 0.627033 -0.0653634 2.42824
H -0.0998639 0.316266 1.91049
H 1.20454 -0.576012 1.83849
