10
Coordinates from XML
C 1.2325 -0.218361 -0.639889
C -0.301232 0.0421487 -0.733651
O -0.919077 0.211065 0.376524
O -0.779158 0.0564143 -1.92464
H 1.57047 -0.201551 0.397169
H 1.46737 -1.18887 -1.08956
H 1.76978 0.540566 -1.21792
O 0.627033 -0.0653634 2.45889
H -0.0998639 0.316266 1.94114
H 1.20454 -0.576012 1.86913
