10
Coordinates from XML
C 1.2325 -0.218361 -0.653919
C -0.301232 0.0421487 -0.747681
O -0.919077 0.211065 0.362494
O -0.779158 0.0564143 -1.93867
H 1.57047 -0.201551 0.383139
H 1.46737 -1.18887 -1.10359
H 1.76978 0.540566 -1.23195
O 0.627033 -0.0653634 2.50486
H -0.0998639 0.316266 1.98711
H 1.20454 -0.576012 1.9151
