10
Coordinates from XML
C 1.23250130699 -0.218360881093 -0.691331885489
C -0.301232278378 0.042148690365 -0.7850936182
O -0.919076976796 0.211065206331 0.325081275796
O -0.779158253436 0.056414344877 -1.976085585451
H 1.570470790073 -0.201550853305 0.345725892364
H 1.467368418359 -1.188870135624 -1.14099814367
H 1.769780659557 0.540565752813 -1.269362820293
O 0.627033025613 -0.065363447 2.627443246997
H -0.099863929374 0.316266242153 2.109695158003
H 1.204539617919 -0.576011884712 2.037690930025
