10
Coordinates from XML
C 1.2325 -0.218361 -0.705362
C -0.301232 0.0421487 -0.799123
O -0.919077 0.211065 0.311051
O -0.779158 0.0564143 -1.99012
H 1.57047 -0.201551 0.331696
H 1.46737 -1.18887 -1.15503
H 1.76978 0.540566 -1.28339
O 0.627033 -0.0653634 2.67341
H -0.0998639 0.316266 2.15567
H 1.20454 -0.576012 2.08366
