10
Coordinates from XML
C 1.23250130699 -0.218360881093 -0.714714980773
C -0.301232278378 0.042148690365 -0.808476713484
O -0.919076976796 0.211065206331 0.301698180513
O -0.779158253436 0.056414344877 -1.999468680734
H 1.570470790073 -0.201550853305 0.322342797081
H 1.467368418359 -1.188870135624 -1.164381238953
H 1.769780659557 0.540565752813 -1.292745915576
O 0.627033025613 -0.065363447 2.704060151714
H -0.099863929374 0.316266242153 2.186312062719
H 1.204539617919 -0.576011884712 2.114307834741
