10
Coordinates from XML
C 1.23250130699 -0.218360881093 -0.728744837943
C -0.301232278378 0.042148690365 -0.822506570654
O -0.919076976796 0.211065206331 0.287668323342
O -0.779158253436 0.056414344877 -2.013498537905
H 1.570470790073 -0.201550853305 0.308312939911
H 1.467368418359 -1.188870135624 -1.178411096123
H 1.769780659557 0.540565752813 -1.306775772747
O 0.627033025613 -0.065363447 2.750030294543
H -0.099863929374 0.316266242153 2.232282205549
H 1.204539617919 -0.576011884712 2.160277977571
