10
Coordinates from XML
C 1.2325 -0.218361 -0.728745
C -0.301232 0.0421487 -0.822507
O -0.919077 0.211065 0.287668
O -0.779158 0.0564143 -2.0135
H 1.57047 -0.201551 0.308313
H 1.46737 -1.18887 -1.17841
H 1.76978 0.540566 -1.30678
O 0.627033 -0.0653634 2.75003
H -0.0998639 0.316266 2.23228
H 1.20454 -0.576012 2.16028
