10
Coordinates from XML
C 1.23250130699 -0.218360881093 -0.766157790397
C -0.301232278378 0.042148690365 -0.859919523108
O -0.919076976796 0.211065206331 0.250255370889
O -0.779158253436 0.056414344877 -2.050911490358
H 1.570470790073 -0.201550853305 0.270899987457
H 1.467368418359 -1.188870135624 -1.215824048577
H 1.769780659557 0.540565752813 -1.3441887252
O 0.627033025613 -0.065363447 2.87261734209
H -0.099863929374 0.316266242153 2.354869253095
H 1.204539617919 -0.576011884712 2.282865025117
