10
Coordinates from XML
C 1.2325 -0.218361 -0.766158
C -0.301232 0.0421487 -0.85992
O -0.919077 0.211065 0.250255
O -0.779158 0.0564143 -2.05091
H 1.57047 -0.201551 0.2709
H 1.46737 -1.18887 -1.21582
H 1.76978 0.540566 -1.34419
O 0.627033 -0.0653634 2.87262
H -0.0998639 0.316266 2.35487
H 1.20454 -0.576012 2.28287
