10
Coordinates from XML
C 1.23250130699 -0.218360881093 -0.77551102851
C -0.301232278378 0.042148690365 -0.869272761221
O -0.919076976796 0.211065206331 0.240902132775
O -0.779158253436 0.056414344877 -2.060264728472
H 1.570470790073 -0.201550853305 0.261546749343
H 1.467368418359 -1.188870135624 -1.22517728669
H 1.769780659557 0.540565752813 -1.353541963314
O 0.627033025613 -0.065363447 2.903264103976
H -0.099863929374 0.316266242153 2.385516014982
H 1.204539617919 -0.576011884712 2.313511787004
