8
Coordinates from XML
H 0.291325092333 0.900212403129 -1.197414571603
N -4.180905e-06 -9.790463e-06 -1.588954169497
H 0.321957005344 -0.070785223201 -2.558394566153
H 0.408038636409 -0.760174159322 -1.037411440821
H -1.021309007582 -0.069204270135 -1.562557863121
O -0.028344696314 -0.053360735744 1.565826514289
H -0.102147782612 0.278460724925 2.465587145064
H 0.552045046745 0.568500155788 1.116874013756
