8
Coordinates from XML
H -0.410872166893 -0.173878640804 -0.91709255729
N -2.846408e-06 3.950327e-06 -1.838790580499
H 1.015385238167 -0.122182929372 -1.788389646653
H -0.390119944088 -0.661021981751 -2.516582257357
H -0.214444636775 0.957082372511 -2.133007851122
O -0.055664032005 0.032833316076 1.830702714633
H 0.786278398704 0.389118960496 2.129558955914
H 0.097241242038 -0.9102612209 1.719733162522
