8
Coordinates from XML
H -0.818592834199 0.608852563023 -1.797006824712
N 2.753325e-06 -6.977221e-06 -1.708874399687
H 0.819816497605 0.563362116428 -1.465967958829
H -0.16772511015 -0.693157239863 -0.974055872966
H 0.166432519068 -0.479025889531 -2.598475548924
O -0.018746872692 -0.03997909767 1.662784379875
H -0.152061489505 0.910810676267 1.720642730364
H 0.449618635377 -0.276247990336 2.46896818721
