8
Coordinates from XML
H -0.586812530741 -0.449158939346 -2.437709048776
N 8.359816e-06 1.10816e-06 -1.728856106249
H 0.9059414075 0.242873654438 -2.139685863422
H -0.461252518289 0.850152779743 -1.392658652905
H 0.142099774067 -0.643906925479 -0.945440083812
O 0.0564191031 -0.014690187663 1.701341557329
H -0.594261550958 0.640455141079 1.432044593621
H -0.301242844178 -0.407287169015 2.503256210957
