8
Coordinates from XML
H 0.245333785406 -0.623261155668 -2.69327124081
N -4.152293e-06 8.473205e-06 -1.918726041322
H -0.893061167638 0.45888482714 -2.11963524754
H -0.08264322262 -0.544542118261 -1.055485850304
H 0.730377954463 0.708891473435 -1.806587465815
O -0.030777145195 0.055483683159 1.93743476759
H -0.141774388454 -0.812736972603 2.336175378634
H 0.630280360845 -0.067920098839 1.249760389488
