8
Coordinates from XML
H 1.064748891742 -0.325380927532 -2.106063075091
N 0.203748891742 0.140619072468 -1.816063075091
H -0.591251108258 -0.294380927532 -2.284063075091
H 0.085748891742 0.056619072468 -0.747063075091
H 0.253748891742 1.125619072468 -2.080063075091
O -0.196967604909 -0.136216457039 1.754896210299
H -0.570967604909 0.556783542961 2.319896210299
H 0.053032395091 -0.911216457039 2.278896210299
