8
Coordinates from XML
H 1.067513026789 -0.323495563743 -2.130524871373
N 0.206513026789 0.142504436257 -1.840524871373
H -0.588486973211 -0.292495563743 -2.308524871373
H 0.088513026789 0.058504436257 -0.771524871373
H 0.256513026789 1.127504436257 -2.104524871373
O -0.199735394063 -0.138104313225 1.779390344373
H -0.573735394063 0.554895686775 2.344390344373
H 0.050264605937 -0.913104313225 2.303390344373
