8
Coordinates from XML
H 1.068204060551 -0.323024222795 -2.136640320444
N 0.207204060551 0.142975777205 -1.846640320444
H -0.587795939449 -0.292024222795 -2.314640320444
H 0.089204060551 0.058975777205 -0.777640320444
H 0.257204060551 1.127975777205 -2.110640320444
O -0.200427341351 -0.138576277272 1.785513877892
H -0.574427341351 0.554423722728 2.350513877892
H 0.049572658649 -0.913576277272 2.309513877892
