8
Coordinates from XML
H 1.068895094312 -0.322552881848 -2.142755769514
N 0.207895094312 0.143447118152 -1.852755769514
H -0.587104905688 -0.291552881848 -2.320755769514
H 0.089895094312 0.059447118152 -0.783755769514
H 0.257895094312 1.128447118152 -2.116755769514
O -0.20111928864 -0.139048241318 1.79163741141
H -0.57511928864 0.553951758682 2.35663741141
H 0.04888071136 -0.914048241318 2.31563741141
