8
Coordinates from XML
H 1.070968195597 -0.321138859006 -2.161102116726
N 0.209968195597 0.144861140994 -1.871102116726
H -0.585031804403 -0.290138859006 -2.339102116726
H 0.091968195597 0.060861140994 -0.802102116726
H 0.259968195597 1.129861140994 -2.135102116726
O -0.203195130505 -0.140464133458 1.810008011966
H -0.577195130505 0.552535866542 2.375008011966
H 0.046804869495 -0.915464133458 2.334008011966
