8
Coordinates from XML
H 1.072350263121 -0.320196177111 -2.173333014866
N 0.211350263121 0.145803822889 -1.883333014866
H -0.583649736879 -0.289196177111 -2.351333014866
H 0.093350263121 0.061803822889 -0.814333014866
H 0.261350263121 1.130803822889 -2.147333014866
O -0.204579025082 -0.141408061551 1.822255079003
H -0.578579025082 0.551591938449 2.387255079003
H 0.045420974918 -0.916408061551 2.346255079003
