8
Coordinates from XML
H 1.074423364406 -0.31878215427 -2.191679362078
N 0.213423364406 0.14721784573 -1.901679362078
H -0.581576635594 -0.28778215427 -2.369679362078
H 0.095423364406 0.06321784573 -0.832679362078
H 0.263423364406 1.13221784573 -2.165679362078
O -0.206654866948 -0.14282395369 1.840625679558
H -0.580654866948 0.55017604631 2.405625679558
H 0.043345133052 -0.91782395369 2.364625679558
