8
Coordinates from XML
H 1.075114398168 -0.318310813322 -2.197794811148
N 0.214114398168 0.147689186678 -1.907794811148
H -0.580885601832 -0.287310813322 -2.375794811148
H 0.096114398168 0.063689186678 -0.838794811148
H 0.264114398168 1.132689186678 -2.171794811148
O -0.207346814236 -0.143295917737 1.846749213077
H -0.581346814236 0.549704082263 2.411749213077
H 0.042653185764 -0.918295917737 2.370749213077
