8
Coordinates from XML
H 1.077187499453 -0.31689679048 -2.21614115836
N 0.216187499453 0.14910320952 -1.92614115836
H -0.578812500547 -0.28589679048 -2.39414115836
H 0.098187499453 0.06510320952 -0.85714115836
H 0.266187499453 1.13410320952 -2.19014115836
O -0.209422656102 -0.144711809876 1.865119813632
H -0.583422656102 0.548288190124 2.430119813632
H 0.040577343898 -0.919711809876 2.389119813632
