8
Coordinates from XML
H 1.078569566976 -0.315954108586 -2.2283720565
N 0.217569566976 0.150045891414 -1.9383720565
H -0.577430433024 -0.284954108586 -2.4063720565
H 0.099569566976 0.066045891414 -0.8693720565
H 0.267569566976 1.135045891414 -2.2023720565
O -0.210806550679 -0.145655737969 1.877366880669
H -0.584806550679 0.547344262031 2.442366880669
H 0.039193449321 -0.920655737969 2.401366880669
