8
Coordinates from XML
H 1.079260600738 -0.315482767638 -2.234487505571
N 0.218260600738 0.150517232362 -1.944487505571
H -0.576739399262 -0.284482767638 -2.412487505571
H 0.100260600738 0.066517232362 -0.875487505571
H 0.268260600738 1.135517232362 -2.208487505571
O -0.211498497968 -0.146127702016 1.883490414188
H -0.585498497968 0.546872297984 2.448490414188
H 0.038501502032 -0.921127702016 2.407490414188
