8
Coordinates from XML
H 1.080642668261 -0.314540085744 -2.246718403712
N 0.219642668261 0.151459914256 -1.956718403712
H -0.575357331739 -0.283540085744 -2.424718403712
H 0.101642668261 0.067459914256 -0.887718403712
H 0.269642668261 1.136459914256 -2.220718403712
O -0.212882392545 -0.147071630109 1.895737481225
H -0.586882392545 0.545928369891 2.460737481225
H 0.037117607455 -0.922071630109 2.419737481225
