8
Coordinates from XML
H 1.082024735785 -0.313597403849 -2.258949301853
N 0.221024735785 0.152402596151 -1.968949301853
H -0.573975264215 -0.282597403849 -2.436949301853
H 0.103024735785 0.068402596151 -0.899949301853
H 0.271024735785 1.137402596151 -2.232949301853
O -0.214266287122 -0.148015558202 1.907984548262
H -0.588266287122 0.544984441798 2.472984548262
H 0.035733712878 -0.923015558202 2.431984548262
