8
Coordinates from XML
H 1.084788870832 -0.31171204006 -2.283411098134
N 0.223788870832 0.15428795994 -1.993411098134
H -0.571211129168 -0.28071204006 -2.461411098134
H 0.105788870832 0.07028795994 -0.924411098134
H 0.273788870832 1.13928795994 -2.257411098134
O -0.217034076276 -0.149903414388 1.932478682336
H -0.591034076276 0.543096585612 2.497478682336
H 0.032965923724 -0.924903414388 2.456478682336
