8
Coordinates from XML
H 1.085479904594 -0.311240699113 -2.289526547205
N 0.224479904594 0.154759300887 -1.999526547205
H -0.570520095406 -0.280240699113 -2.467526547205
H 0.106479904594 0.070759300887 -0.930526547205
H 0.274479904594 1.139759300887 -2.263526547205
O -0.217726023564 -0.150375378434 1.938602215854
H -0.591726023564 0.542624621566 2.503602215854
H 0.032273976436 -0.925375378434 2.462602215854
