8
Coordinates from XML
H 1.087553005879 -0.309826676271 -2.307872894416
N 0.226553005879 0.156173323729 -2.017872894416
H -0.568446994121 -0.278826676271 -2.485872894416
H 0.108553005879 0.072173323729 -0.948872894416
H 0.276553005879 1.141173323729 -2.281872894416
O -0.21980186543 -0.151791270574 1.95697281641
H -0.59380186543 0.541208729426 2.52197281641
H 0.03019813457 -0.926791270574 2.48097281641
