8
Coordinates from XML
H 1.062180699169 -0.327132642697 -2.08333531307
N 0.201180699169 0.138867357303 -1.79333531307
H -0.593819300831 -0.296132642697 -2.26133531307
H 0.083180699169 0.054867357303 -0.72433531307
H 0.251180699169 1.123867357303 -2.05733531307
O -0.194396017259 -0.134462426157 1.732138402829
H -0.568396017259 0.558537573843 2.297138402829
H 0.055603982741 -0.909462426157 2.256138402829
