8
Coordinates from XML
H 1.063452081631 -0.326265456972 -2.094586680407
N 0.202452081631 0.139734543028 -1.804586680407
H -0.592547918369 -0.295265456972 -2.272586680407
H 0.084452081631 0.055734543028 -0.735586680407
H 0.252452081631 1.124734543028 -2.068586680407
O -0.195669080452 -0.135330758277 1.743404644151
H -0.569669080452 0.557669241723 2.308404644151
H 0.054330919548 -0.910330758277 2.267404644151
