8
Coordinates from XML
H 1.064723464093 -0.325398271246 -2.105838047745
N 0.203723464093 0.140601728754 -1.815838047745
H -0.591276535907 -0.294398271246 -2.283838047745
H 0.085723464093 0.056601728754 -0.746838047745
H 0.253723464093 1.125601728754 -2.079838047745
O -0.196942143645 -0.136199090397 1.754670885473
H -0.570942143645 0.556800909603 2.319670885473
H 0.053057856355 -0.911199090397 2.278670885473
