8
Coordinates from XML
H 1.065994846555 -0.324531085521 -2.117089415082
N 0.204994846555 0.141468914479 -1.827089415082
H -0.590005153445 -0.293531085521 -2.295089415082
H 0.086994846555 0.057468914479 -0.758089415082
H 0.254994846555 1.126468914479 -2.091089415082
O -0.198215206838 -0.137067422517 1.765937126794
H -0.572215206838 0.555932577483 2.330937126794
H 0.051784793162 -0.912067422517 2.289937126794
