8
Coordinates from XML
H 1.066630537786 -0.324097492658 -2.122715098751
N 0.205630537786 0.141902507342 -1.832715098751
H -0.589369462214 -0.293097492658 -2.300715098751
H 0.087630537786 0.057902507342 -0.763715098751
H 0.255630537786 1.126902507342 -2.096715098751
O -0.198851738435 -0.137501588577 1.771570247455
H -0.572851738435 0.555498411423 2.336570247455
H 0.051148261565 -0.912501588577 2.295570247455
