8
Coordinates from XML
H 1.067901920248 -0.323230306932 -2.133966466088
N 0.206901920248 0.142769693068 -1.843966466088
H -0.588098079752 -0.292230306932 -2.311966466088
H 0.088901920248 0.058769693068 -0.774966466088
H 0.256901920248 1.127769693068 -2.107966466088
O -0.200124801628 -0.138369920697 1.782836488777
H -0.574124801628 0.554630079303 2.347836488777
H 0.049875198372 -0.913369920697 2.306836488777
