8
Coordinates from XML
H 1.069808993941 -0.321929528344 -2.150843517094
N 0.208808993941 0.144070471656 -1.860843517094
H -0.586191006059 -0.290929528344 -2.328843517094
H 0.090808993941 0.060070471656 -0.791843517094
H 0.258808993941 1.129070471656 -2.124843517094
O -0.202034396418 -0.139672418878 1.79973585076
H -0.576034396418 0.553327581122 2.36473585076
H 0.047965603582 -0.914672418878 2.32373585076
