8
Coordinates from XML
H 1.070444685172 -0.321495935481 -2.156469200763
N 0.209444685172 0.144504064519 -1.866469200763
H -0.585555314828 -0.290495935481 -2.334469200763
H 0.091444685172 0.060504064519 -0.797469200763
H 0.259444685172 1.129504064519 -2.130469200763
O -0.202670928014 -0.140106584938 1.805368971421
H -0.576670928014 0.552893415062 2.370368971421
H 0.047329071986 -0.915106584938 2.329368971421
