8
Coordinates from XML
H 1.072351758865 -0.320195156893 -2.173346251769
N 0.211351758865 0.145804843107 -1.883346251769
H -0.583648241135 -0.289195156893 -2.351346251769
H 0.093351758865 0.061804843107 -0.814346251769
H 0.261351758865 1.130804843107 -2.147346251769
O -0.204580522804 -0.141409083118 1.822268333404
H -0.578580522804 0.551590916882 2.387268333404
H 0.045419477196 -0.916409083118 2.346268333404
