8
Coordinates from XML
H 1.073623141327 -0.319327971167 -2.184597619107
N 0.212623141327 0.146672028833 -1.894597619107
H -0.582376858673 -0.288327971167 -2.362597619107
H 0.094623141327 0.062672028833 -0.825597619107
H 0.262623141327 1.131672028833 -2.158597619107
O -0.205853585997 -0.142277415238 1.833534574726
H -0.579853585997 0.550722584762 2.398534574726
H 0.044146414003 -0.917277415238 2.357534574726
