8
Coordinates from XML
H 1.074894523789 -0.318460785442 -2.195848986444
N 0.213894523789 0.147539214558 -1.905848986444
H -0.581105476211 -0.287460785442 -2.373848986444
H 0.095894523789 0.063539214558 -0.836848986444
H 0.263894523789 1.132539214558 -2.169848986444
O -0.20712664919 -0.143145747358 1.844800816048
H -0.58112664919 0.549854252642 2.409800816048
H 0.04287335081 -0.918145747358 2.368800816048
