8
Coordinates from XML
H 1.076165906251 -0.317593599716 -2.207100353781
N 0.215165906251 0.148406400284 -1.917100353781
H -0.579834093749 -0.286593599716 -2.385100353781
H 0.097165906251 0.064406400284 -0.848100353781
H 0.265165906251 1.133406400284 -2.181100353781
O -0.208399712383 -0.144014079478 1.85606705737
H -0.582399712383 0.548985920522 2.42106705737
H 0.041600287617 -0.919014079478 2.38006705737
