8
Coordinates from XML
H 1.076801597482 -0.317160006854 -2.21272603745
N 0.215801597482 0.148839993146 -1.92272603745
H -0.579198402518 -0.286160006854 -2.39072603745
H 0.097801597482 0.064839993146 -0.85372603745
H 0.265801597482 1.133839993146 -2.18672603745
O -0.20903624398 -0.144448245539 1.861700178031
H -0.58303624398 0.548551754461 2.426700178031
H 0.04096375602 -0.919448245539 2.385700178031
