8
Coordinates from XML
H 1.077437288713 -0.316726413991 -2.218351721119
N 0.216437288713 0.149273586009 -1.928351721119
H -0.578562711287 -0.285726413991 -2.396351721119
H 0.098437288713 0.065273586009 -0.859351721119
H 0.266437288713 1.134273586009 -2.192351721119
O -0.209672775576 -0.144882411599 1.867333298692
H -0.583672775576 0.548117588401 2.432333298692
H 0.040327224424 -0.919882411599 2.391333298692
