8
Coordinates from XML
H 1.078072979944 -0.316292821128 -2.223977404787
N 0.217072979944 0.149707178872 -1.933977404787
H -0.577927020056 -0.285292821128 -2.401977404787
H 0.099072979944 0.065707178872 -0.864977404787
H 0.267072979944 1.134707178872 -2.197977404787
O -0.210309307173 -0.145316577659 1.872966419353
H -0.584309307173 0.547683422341 2.437966419353
H 0.039690692827 -0.920316577659 2.396966419353
