8
Coordinates from XML
H 1.078708671175 -0.315859228265 -2.229603088456
N 0.217708671175 0.150140771735 -1.939603088456
H -0.577291328825 -0.284859228265 -2.407603088456
H 0.099708671175 0.066140771735 -0.870603088456
H 0.267708671175 1.135140771735 -2.203603088456
O -0.21094583877 -0.145750743719 1.878599540014
H -0.58494583877 0.547249256281 2.443599540014
H 0.03905416123 -0.920750743719 2.402599540014
