8
Coordinates from XML
H 1.079344362406 -0.315425635402 -2.235228772125
N 0.218344362406 0.150574364598 -1.945228772125
H -0.576655637594 -0.284425635402 -2.413228772125
H 0.100344362406 0.066574364598 -0.876228772125
H 0.268344362406 1.135574364598 -2.209228772125
O -0.211582370366 -0.146184909779 1.884232660675
H -0.585582370366 0.546815090221 2.449232660675
H 0.038417629634 -0.921184909779 2.408232660675
