8
Coordinates from XML
H 1.080615744868 -0.314558449677 -2.246480139462
N 0.219615744868 0.151441550323 -1.956480139462
H -0.575384255132 -0.283558449677 -2.424480139462
H 0.101615744868 0.067441550323 -0.887480139462
H 0.269615744868 1.136441550323 -2.220480139462
O -0.212855433559 -0.147053241899 1.895498901997
H -0.586855433559 0.545946758101 2.460498901997
H 0.037144566441 -0.922053241899 2.419498901997
