8
Coordinates from XML
H 1.085701274716 -0.311089706775 -2.291485608812
N 0.224701274716 0.154910293225 -2.001485608812
H -0.570298725284 -0.280089706775 -2.469485608812
H 0.106701274716 0.070910293225 -0.932485608812
H 0.274701274716 1.139910293225 -2.265485608812
O -0.217947686332 -0.15052657038 1.940563867284
H -0.591947686332 0.54247342962 2.505563867284
H 0.032052313668 -0.92552657038 2.464563867284
