8
Coordinates from XML
H -0.184044993901 0.904011101505 -1.742639477321
N 0.027572788989 -0.086546931966 -1.595743670131
H -0.576334898125 -0.458754801541 -0.85745481024
H -0.137111821672 -0.603225470467 -2.463956550419
H 1.007679866108 -0.188807347557 -1.31860784888
O -0.038730504326 0.121667497217 1.648979486043
H 0.83503952115 -0.044501539961 1.260395801192
H -0.713652451984 -0.337160027271 1.123583298571
