8
Coordinates from XML
H -0.184044993901 0.904011101505 -1.782613055359
N 0.027572788989 -0.086546931966 -1.635717248169
H -0.576334898125 -0.458754801541 -0.897428388279
H -0.137111821672 -0.603225470467 -2.503930128458
H 1.007679866108 -0.188807347557 -1.358581426919
O -0.038730504326 0.121667497217 1.689005908004
H 0.83503952115 -0.044501539961 1.300422223153
H -0.713652451984 -0.337160027271 1.163609720532
