8
Coordinates from XML
H -0.184044993901 0.904011101505 -1.942507367515
N 0.027572788989 -0.086546931966 -1.795611560325
H -0.576334898125 -0.458754801541 -1.057322700434
H -0.137111821672 -0.603225470467 -2.663824440614
H 1.007679866108 -0.188807347557 -1.518475739074
O -0.038730504326 0.121667497217 1.849111595849
H 0.83503952115 -0.044501539961 1.460527910998
H -0.713652451984 -0.337160027271 1.323715408376
