8
Coordinates from XML
H -0.184044993901 0.904011101505 -2.042441312612
N 0.027572788989 -0.086546931966 -1.895545505422
H -0.576334898125 -0.458754801541 -1.157256645531
H -0.137111821672 -0.603225470467 -2.763758385711
H 1.007679866108 -0.188807347557 -1.618409684172
O -0.038730504326 0.121667497217 1.949177650752
H 0.83503952115 -0.044501539961 1.5605939659
H -0.713652451984 -0.337160027271 1.423781463279
