8
Coordinates from XML
H -0.184044993901 0.904011101505 -2.11239507418
N 0.027572788989 -0.086546931966 -1.96549926699
H -0.576334898125 -0.458754801541 -1.227210407099
H -0.137111821672 -0.603225470467 -2.833712147279
H 1.007679866108 -0.188807347557 -1.68836344574
O -0.038730504326 0.121667497217 2.019223889184
H 0.83503952115 -0.044501539961 1.630640204332
H -0.713652451984 -0.337160027271 1.493827701711
