8
Coordinates from XML
H -0.184044993901 0.904011101505 -2.242309202806
N 0.027572788989 -0.086546931966 -2.095413395616
H -0.576334898125 -0.458754801541 -1.357124535726
H -0.137111821672 -0.603225470467 -2.963626275905
H 1.007679866108 -0.188807347557 -1.818277574366
O -0.038730504326 0.121667497217 2.149309760557
H 0.83503952115 -0.044501539961 1.760726075706
H -0.713652451984 -0.337160027271 1.623913573085
