8
Coordinates from XML
H -0.184044993901 0.904011101505 -2.442177093001
N 0.027572788989 -0.086546931966 -2.295281285811
H -0.576334898125 -0.458754801541 -1.55699242592
H -0.137111821672 -0.603225470467 -3.163494166099
H 1.007679866108 -0.188807347557 -2.01814546456
O -0.038730504326 0.121667497217 2.349441870363
H 0.83503952115 -0.044501539961 1.960858185512
H -0.713652451984 -0.337160027271 1.824045682891
