8
Coordinates from XML
H -0.184044993901 0.904011101505 -2.642044983195
N 0.027572788989 -0.086546931966 -2.495149176005
H -0.576334898125 -0.458754801541 -1.756860316114
H -0.137111821672 -0.603225470467 -3.363362056294
H 1.007679866108 -0.188807347557 -2.218013354755
O -0.038730504326 0.121667497217 2.549573980169
H 0.83503952115 -0.044501539961 2.160990295318
H -0.713652451984 -0.337160027271 2.024177792696
