8
Coordinates from XML
H -0.723234535393 0.168301160228 -2.30459312566
N -0.083396658418 0.075634420055 -1.51112854023
H -0.609303253154 -0.208878887507 -0.679991930039
H 0.625355622759 -0.631373171216 -1.724861571013
H 0.373719309581 0.974349907656 -1.334417468752
O 0.117164487166 -0.106256427906 1.469532111767
H 0.472788839274 0.527018755888 2.113408923158
H -0.840069035215 -0.193942270453 1.604063383658
