8
Coordinates from XML
H -0.723234535393 0.168301160228 -2.364553492719
N -0.083396658418 0.075634420055 -1.571088907289
H -0.609303253154 -0.208878887507 -0.739952297097
H 0.625355622759 -0.631373171216 -1.784821938071
H 0.373719309581 0.974349907656 -1.39437783581
O 0.117164487166 -0.106256427906 1.529571744708
H 0.472788839274 0.527018755888 2.1734485561
H -0.840069035215 -0.193942270453 1.6641030166
