8
Coordinates from XML
H -0.723234535393 0.168301160228 -2.424513859777
N -0.083396658418 0.075634420055 -1.631049274347
H -0.609303253154 -0.208878887507 -0.799912664155
H 0.625355622759 -0.631373171216 -1.844782305129
H 0.373719309581 0.974349907656 -1.454338202869
O 0.117164487166 -0.106256427906 1.58961137765
H 0.472788839274 0.527018755888 2.233488189042
H -0.840069035215 -0.193942270453 1.724142649542
