8
Coordinates from XML
H -0.723234535393 0.168301160228 -2.894203401734
N -0.083396658418 0.075634420055 -2.100738816304
H -0.609303253154 -0.208878887507 -1.269602206112
H 0.625355622759 -0.631373171216 -2.314471847086
H 0.373719309581 0.974349907656 -1.924027744825
O 0.117164487166 -0.106256427906 2.059921835694
H 0.472788839274 0.527018755888 2.703798647085
H -0.840069035215 -0.193942270453 2.194453107585
