8
Coordinates from XML
H -0.723234535393 0.168301160228 -3.064091108399
N -0.083396658418 0.075634420055 -2.270626522969
H -0.609303253154 -0.208878887507 -1.439489912777
H 0.625355622759 -0.631373171216 -2.484359553751
H 0.373719309581 0.974349907656 -2.09391545149
O 0.117164487166 -0.106256427906 2.230034129028
H 0.472788839274 0.527018755888 2.87391094042
H -0.840069035215 -0.193942270453 2.36456540092
