8
Coordinates from XML
H -0.723234535393 0.168301160228 -3.124051475457
N -0.083396658418 0.075634420055 -2.330586890027
H -0.609303253154 -0.208878887507 -1.499450279835
H 0.625355622759 -0.631373171216 -2.544319920809
H 0.373719309581 0.974349907656 -2.153875818549
O 0.117164487166 -0.106256427906 2.29007376197
H 0.472788839274 0.527018755888 2.933950573362
H -0.840069035215 -0.193942270453 2.424605033862
