8
Coordinates from XML
H -0.723234535393 0.168301160228 -3.184011842515
N -0.083396658418 0.075634420055 -2.390547257085
H -0.609303253154 -0.208878887507 -1.559410646894
H 0.625355622759 -0.631373171216 -2.604280287867
H 0.373719309581 0.974349907656 -2.213836185607
O 0.117164487166 -0.106256427906 2.350113394912
H 0.472788839274 0.527018755888 2.993990206303
H -0.840069035215 -0.193942270453 2.484644666804
