8
Coordinates from XML
H 1.066267285654 -0.324345260008 -2.119500422369
N 0.205267285654 0.141654739992 -1.829500422369
H -0.589732714346 -0.293345260008 -2.297500422369
H 0.087267285654 0.057654739992 -0.760500422369
H 0.255267285654 1.126654739992 -2.093500422369
O -0.198488006094 -0.137253493686 1.768351321363
H -0.572488006094 0.555746506314 2.333351321363
H 0.051511993906 -0.912253493686 2.292351321363
