8
Coordinates from XML
H 1.070263059106 -0.321619819156 -2.154861862572
N 0.209263059106 0.144380180844 -1.864861862572
H -0.585736940894 -0.290619819156 -2.332861862572
H 0.091263059106 0.060380180844 -0.795861862572
H 0.259263059106 1.129380180844 -2.128861862572
O -0.202489061844 -0.139982537492 1.803759508375
H -0.576489061844 0.553017462508 2.368759508375
H 0.047510938156 -0.914982537492 2.327759508375
