8
Coordinates from XML
H 1.07825460601 -0.316168937453 -2.225584742979
N 0.21725460601 0.149831062547 -1.935584742979
H -0.57774539399 -0.285168937453 -2.403584742979
H 0.09925460601 0.065831062547 -0.866584742979
H 0.26725460601 1.134831062547 -2.199584742979
O -0.210491173343 -0.145440625104 1.874575882399
H -0.584491173343 0.547559374896 2.439575882399
H 0.039508826657 -0.920440625104 2.398575882399
