8
Coordinates from XML
H 1.084248266188 -0.312080776175 -2.278626903283
N 0.223248266188 0.153919223825 -1.988626903283
H -0.571751733812 -0.281080776175 -2.456626903283
H 0.105248266188 0.069919223825 -0.919626903283
H 0.273248266188 1.138919223825 -2.252626903283
O -0.216492756968 -0.149534190814 1.927688162916
H -0.590492756968 0.543465809186 2.492688162916
H 0.033507243032 -0.924534190814 2.451688162916
