8
Coordinates from XML
H 1.086246152914 -0.310718055749 -2.296307623385
N 0.225246152914 0.155281944251 -2.006307623385
H -0.569753847086 -0.279718055749 -2.474307623385
H 0.107246152914 0.071281944251 -0.937307623385
H 0.275246152914 1.140281944251 -2.270307623385
O -0.218493284843 -0.150898712717 1.945392256422
H -0.592493284843 0.542101287283 2.510392256422
H 0.031506715157 -0.925898712717 2.469392256422
