8
Coordinates from XML
H 1.08824403964 -0.309355335324 -2.313988343487
N 0.22724403964 0.156644664676 -2.023988343487
H -0.56775596036 -0.278355335324 -2.491988343487
H 0.10924403964 0.072644664676 -0.954988343487
H 0.27724403964 1.141644664676 -2.287988343487
O -0.220493812718 -0.15226323462 1.963096349928
H -0.594493812718 0.54073676538 2.528096349928
H 0.029506187282 -0.92726323462 2.487096349928
