8
Coordinates from XML
H -0.227229051197 -0.854181922368 -1.535403565145
N 0.129604582828 0.08554436914 -1.342660377054
H -0.458518707036 0.535609267096 -0.635648201123
H 1.09072385551 0.021360520094 -0.996248027625
H 0.113412564361 0.639980645794 -2.203014706563
O -0.182099793684 -0.120259071756 1.349866403713
H 0.715115123531 -0.472204663383 1.234874319942
H -0.144219383168 0.849451462993 1.367474349839
