8
Coordinates from XML
H -0.227229051197 -0.854181922368 -2.145000630238
N 0.129604582828 0.08554436914 -1.952257442147
H -0.458518707036 0.535609267096 -1.245245266215
H 1.09072385551 0.021360520094 -1.605845092717
H 0.113412564361 0.639980645794 -2.812611771656
O -0.182099793684 -0.120259071756 1.960269338621
H 0.715115123531 -0.472204663383 1.845277254849
H -0.144219383168 0.849451462993 1.977877284746
