8
Coordinates from XML
H -0.227229051197 -0.854181922368 -2.204960997296
N 0.129604582828 0.08554436914 -2.012217809205
H -0.458518707036 0.535609267096 -1.305205633274
H 1.09072385551 0.021360520094 -1.665805459775
H 0.113412564361 0.639980645794 -2.872572138714
O -0.182099793684 -0.120259071756 2.020308971562
H 0.715115123531 -0.472204663383 1.905316887791
H -0.144219383168 0.849451462993 2.037916917688
