8
Coordinates from XML
H -0.312291908593 -0.651738066239 -1.343683306549
N 0.070959932012 0.138363210618 -1.86944340475
H -0.378416279748 0.187168009922 -2.788134182563
H -0.105034977659 1.006914461902 -1.357080394474
H 1.07961205254 0.011495025337 -1.989429662104
O -0.099706521378 -0.19445103019 1.876283120592
H -0.547996327498 0.664421174841 1.817476049386
H 0.860600140008 -0.054648559727 1.857578259758
