8
Coordinates from XML
H 1.061392442042 -0.327670297847 -2.076359465321
N 0.200392442042 0.138329702153 -1.786359465321
H -0.594607557958 -0.296670297847 -2.254359465321
H 0.082392442042 0.054329702153 -0.717359465321
H 0.250392442042 1.123329702153 -2.050359465321
O -0.193606718079 -0.133924060242 1.725153333209
H -0.567606718079 0.559075939758 2.290153333209
H 0.056393281921 -0.908924060242 2.249153333209
