8
Coordinates from XML
H 1.067359463731 -0.323600306175 -2.129165882691
N 0.206359463731 0.142399693825 -1.839165882691
H -0.588640536269 -0.292600306175 -2.307165882691
H 0.088359463731 0.058399693825 -0.770165882691
H 0.256359463731 1.127399693825 -2.103165882691
O -0.199581627999 -0.137999432326 1.778029559147
H -0.573581627999 0.555000567674 2.343029559147
H 0.050418372001 -0.912999432326 2.302029559147
