8
Coordinates from XML
H 1.073326485419 -0.319530314503 -2.181972300061
N 0.212326485419 0.146469685497 -1.891972300061
H -0.582673514581 -0.288530314503 -2.359972300061
H 0.094326485419 0.062469685497 -0.822972300061
H 0.262326485419 1.131469685497 -2.155972300061
O -0.205556537919 -0.14207480441 1.830905785084
H -0.579556537919 0.55092519559 2.395905785084
H 0.044443462081 -0.91707480441 2.354905785084
