8
Coordinates from XML
H 1.076309996263 -0.317495318667 -2.208375508746
N 0.215309996263 0.148504681333 -1.918375508746
H -0.579690003737 -0.286495318667 -2.386375508746
H 0.097309996263 0.064504681333 -0.849375508746
H 0.265309996263 1.133504681333 -2.182375508746
O -0.208543992878 -0.144112490452 1.857343898053
H -0.582543992878 0.548887509548 2.422343898053
H 0.041456007122 -0.919112490452 2.381343898053
