8
Coordinates from XML
H 0.742542597443 -0.715496269438 -2.095357060523
N -0.035398871097 -0.057339257808 -1.999429476133
H 0.04117158506 0.433472509254 -1.104133766367
H -0.004189406993 0.621967152504 -2.764570057266
H -0.9214591783 -0.568827695119 -2.033312349857
O 0.049774213922 0.08051457588 2.058825439514
H -0.714800165527 -0.482366495768 1.857146476954
H 0.558625987272 0.230117783524 1.245946457444
