8
Coordinates from XML
H 0.742542597443 -0.715496269438 -2.175304216601
N -0.035398871097 -0.057339257808 -2.079376632211
H 0.04117158506 0.433472509254 -1.184080922444
H -0.004189406993 0.621967152504 -2.844517213343
H -0.9214591783 -0.568827695119 -2.113259505934
O 0.049774213922 0.08051457588 2.138878283437
H -0.714800165527 -0.482366495768 1.937199320876
H 0.558625987272 0.230117783524 1.325999301367
