8
Coordinates from XML
H 0.742542597443 -0.715496269438 -2.255251372678
N -0.035398871097 -0.057339257808 -2.159323788289
H 0.04117158506 0.433472509254 -1.264028078522
H -0.004189406993 0.621967152504 -2.924464369421
H -0.9214591783 -0.568827695119 -2.193206662012
O 0.049774213922 0.08051457588 2.218931127359
H -0.714800165527 -0.482366495768 2.017252164799
H 0.558625987272 0.230117783524 1.406052145289
