8
Coordinates from XML
H 0.742542597443 -0.715496269438 -2.335198528756
N -0.035398871097 -0.057339257808 -2.239270944366
H 0.04117158506 0.433472509254 -1.3439752346
H -0.004189406993 0.621967152504 -3.004411525499
H -0.9214591783 -0.568827695119 -2.27315381809
O 0.049774213922 0.08051457588 2.298983971281
H -0.714800165527 -0.482366495768 2.097305008721
H 0.558625987272 0.230117783524 1.486104989211
