8
Coordinates from XML
H 0.742542597443 -0.715496269438 -2.505086235421
N -0.035398871097 -0.057339257808 -2.409158651031
H 0.04117158506 0.433472509254 -1.513862941265
H -0.004189406993 0.621967152504 -3.174299232164
H -0.9214591783 -0.568827695119 -2.443041524755
O 0.049774213922 0.08051457588 2.469096264616
H -0.714800165527 -0.482366495768 2.267417302056
H 0.558625987272 0.230117783524 1.656217282546
