8
Coordinates from XML
H 0.857066581125 -0.245865325758 -1.094427993803
N -0.058862581605 0.019825264262 -1.465976054104
H -0.705548098182 0.189687556126 -0.690567595406
H 0.033860065292 0.87188696831 -2.025676600721
H -0.421474579728 -0.736226771383 -2.053146554768
O 0.082775282944 -0.027875318053 1.41018541077
H -0.788734946112 0.348726878947 1.611987770355
H 0.52898449531 -0.261266945959 2.239949939593
