8
Coordinates from XML
H 0.857066581125 -0.245865325758 -1.21434872792
N -0.058862581605 0.019825264262 -1.585896788221
H -0.705548098182 0.189687556126 -0.810488329523
H 0.033860065292 0.87188696831 -2.145597334837
H -0.421474579728 -0.736226771383 -2.173067288884
O 0.082775282944 -0.027875318053 1.530264676654
H -0.788734946112 0.348726878947 1.732067036239
H 0.52898449531 -0.261266945959 2.360029205477
