8
Coordinates from XML
H 0.857066581125 -0.245865325758 -1.334269462036
N -0.058862581605 0.019825264262 -1.705817522337
H -0.705548098182 0.189687556126 -0.930409063639
H 0.033860065292 0.87188696831 -2.265518068954
H -0.421474579728 -0.736226771383 -2.292988023001
O 0.082775282944 -0.027875318053 1.650343942537
H -0.788734946112 0.348726878947 1.852146302122
H 0.52898449531 -0.261266945959 2.48010847136
