8
Coordinates from XML
H 0.857066581125 -0.245865325758 -1.394229829095
N -0.058862581605 0.019825264262 -1.765777889396
H -0.705548098182 0.189687556126 -0.990369430697
H 0.033860065292 0.87188696831 -2.325478436012
H -0.421474579728 -0.736226771383 -2.352948390059
O 0.082775282944 -0.027875318053 1.710383575479
H -0.788734946112 0.348726878947 1.912185935064
H 0.52898449531 -0.261266945959 2.540148104302
