8
Coordinates from XML
H 0.857066581125 -0.245865325758 -1.454190196153
N -0.058862581605 0.019825264262 -1.825738256454
H -0.705548098182 0.189687556126 -1.050329797756
H 0.033860065292 0.87188696831 -2.38543880307
H -0.421474579728 -0.736226771383 -2.412908757117
O 0.082775282944 -0.027875318053 1.770423208421
H -0.788734946112 0.348726878947 1.972225568006
H 0.52898449531 -0.261266945959 2.600187737244
