8
Coordinates from XML
H 0.857066581125 -0.245865325758 -1.514150563211
N -0.058862581605 0.019825264262 -1.885698623512
H -0.705548098182 0.189687556126 -1.110290164814
H 0.033860065292 0.87188696831 -2.445399170129
H -0.421474579728 -0.736226771383 -2.472869124176
O 0.082775282944 -0.027875318053 1.830462841362
H -0.788734946112 0.348726878947 2.032265200947
H 0.52898449531 -0.261266945959 2.660227370185
