8
Coordinates from XML
H 0.857066581125 -0.245865325758 -1.753992031444
N -0.058862581605 0.019825264262 -2.125540091745
H -0.705548098182 0.189687556126 -1.350131633047
H 0.033860065292 0.87188696831 -2.685240638362
H -0.421474579728 -0.736226771383 -2.712710592409
O 0.082775282944 -0.027875318053 2.070621373129
H -0.788734946112 0.348726878947 2.272423732714
H 0.52898449531 -0.261266945959 2.900385901952
