8
Coordinates from XML
H 0.857066581125 -0.245865325758 -1.813952398503
N -0.058862581605 0.019825264262 -2.185500458804
H -0.705548098182 0.189687556126 -1.410092000106
H 0.033860065292 0.87188696831 -2.74520100542
H -0.421474579728 -0.736226771383 -2.772670959467
O 0.082775282944 -0.027875318053 2.130661006071
H -0.788734946112 0.348726878947 2.332463365656
H 0.52898449531 -0.261266945959 2.960425534894
