8
Coordinates from XML
H 0.857066581125 -0.245865325758 -1.873912765561
N -0.058862581605 0.019825264262 -2.245460825862
H -0.705548098182 0.189687556126 -1.470052367164
H 0.033860065292 0.87188696831 -2.805161372478
H -0.421474579728 -0.736226771383 -2.832631326525
O 0.082775282944 -0.027875318053 2.190700639012
H -0.788734946112 0.348726878947 2.392502998598
H 0.52898449531 -0.261266945959 3.020465167836
