8
Coordinates from XML
H 0.857066581125 -0.245865325758 -1.933873132619
N -0.058862581605 0.019825264262 -2.30542119292
H -0.705548098182 0.189687556126 -1.530012734222
H 0.033860065292 0.87188696831 -2.865121739537
H -0.421474579728 -0.736226771383 -2.892591693584
O 0.082775282944 -0.027875318053 2.250740271954
H -0.788734946112 0.348726878947 2.452542631539
H 0.52898449531 -0.261266945959 3.080504800777
