8
Coordinates from XML
H 0.857066581125 -0.245865325758 -2.043800472226
N -0.058862581605 0.019825264262 -2.415348532527
H -0.705548098182 0.189687556126 -1.639940073829
H 0.033860065292 0.87188696831 -2.975049079144
H -0.421474579728 -0.736226771383 -3.00251903319
O 0.082775282944 -0.027875318053 2.360812932347
H -0.788734946112 0.348726878947 2.562615291932
H 0.52898449531 -0.261266945959 3.19057746117
