8
Coordinates from XML
H 0.641093464027 -0.598145346104 -1.859980829441
N 0.101427671186 0.118153660533 -1.366784877503
H -0.549893352687 0.564129318044 -2.018858700115
H -0.424166173164 -0.315867644004 -0.603078155898
H 0.738205810794 0.822983278833 -0.985209002058
O -0.142461897073 -0.166065864234 1.37169240372
H -0.365966234617 0.753386122675 1.155504195586
H 0.812428583784 -0.23256829806 1.532456461685
