8
Coordinates from XML
H 0.641093464027 -0.598145346104 -1.949921380028
N 0.101427671186 0.118153660533 -1.456725428091
H -0.549893352687 0.564129318044 -2.108799250703
H -0.424166173164 -0.315867644004 -0.693018706486
H 0.738205810794 0.822983278833 -1.075149552645
O -0.142461897073 -0.166065864234 1.461751853133
H -0.365966234617 0.753386122675 1.245563644998
H 0.812428583784 -0.23256829806 1.622515911098
