8
Coordinates from XML
H 0.641093464027 -0.598145346104 -2.029868536106
N 0.101427671186 0.118153660533 -1.536672584168
H -0.549893352687 0.564129318044 -2.18874640678
H -0.424166173164 -0.315867644004 -0.772965862563
H 0.738205810794 0.822983278833 -1.155096708723
O -0.142461897073 -0.166065864234 1.541804697055
H -0.365966234617 0.753386122675 1.325616488921
H 0.812428583784 -0.23256829806 1.70256875502
