8
Coordinates from XML
H 0.641093464027 -0.598145346104 -2.089828903164
N 0.101427671186 0.118153660533 -1.596632951227
H -0.549893352687 0.564129318044 -2.248706773839
H -0.424166173164 -0.315867644004 -0.832926229622
H 0.738205810794 0.822983278833 -1.215057075781
O -0.142461897073 -0.166065864234 1.601844329997
H -0.365966234617 0.753386122675 1.385656121862
H 0.812428583784 -0.23256829806 1.762608387962
