8
Coordinates from XML
H 1.059474470785 -0.328978509456 -2.059385974023
N 0.198474470785 0.137021490544 -1.769385974023
H -0.596525529215 -0.297978509456 -2.237385974023
H 0.080474470785 0.053021490544 -0.700385974023
H 0.248474470785 1.122021490544 -2.033385974023
O -0.191686211319 -0.132614119215 1.708157403443
H -0.565686211319 0.560385880785 2.273157403443
H 0.058313788681 -0.907614119215 2.232157403443
