8
Coordinates from XML
H 1.065867708309 -0.324617804093 -2.115964278348
N 0.204867708309 0.141382195907 -1.825964278348
H -0.590132291691 -0.293617804093 -2.293964278348
H 0.086867708309 0.057382195907 -0.756964278348
H 0.254867708309 1.126382195907 -2.089964278348
O -0.198087900519 -0.136980589305 1.764810502662
H -0.572087900519 0.556019410695 2.329810502662
H 0.051912099481 -0.911980589305 2.288810502662
