8
Coordinates from XML
H 1.04908545981 -0.33606465567 -1.967446229495
N 0.18808545981 0.12993534433 -1.677446229495
H -0.60691454019 -0.30506465567 -2.145446229495
H 0.07008545981 0.04593534433 -0.608446229495
H 0.23808545981 1.11493534433 -1.941446229495
O -0.181283466369 -0.125518605319 1.616096117213
H -0.555283466369 0.567481394681 2.181096117213
H 0.068716533631 -0.900518605319 2.140096117213
