8
Coordinates from XML
H 1.052282078571 -0.333884302989 -1.995735381657
N 0.191282078571 0.132115697011 -1.705735381657
H -0.603717921429 -0.302884302989 -2.173735381657
H 0.073282078571 0.048115697011 -0.636735381657
H 0.241282078571 1.117115697011 -1.969735381657
O -0.184484310969 -0.127701840364 1.644422666822
H -0.558484310969 0.565298159636 2.209422666822
H 0.065515689031 -0.902701840364 2.168422666822
