8
Coordinates from XML
H 1.053880387952 -0.332794126648 -2.009879957739
N 0.192880387952 0.133205873352 -1.719879957739
H -0.602119612048 -0.301794126648 -2.187879957739
H 0.074880387952 0.049205873352 -0.650879957739
H 0.242880387952 1.118205873352 -1.983879957739
O -0.186084733269 -0.128793457886 1.658585941627
H -0.560084733269 0.564206542114 2.223585941627
H 0.063915266731 -0.903793457886 2.182585941627
