8
Coordinates from XML
H 1.071461791142 -0.320802186901 -2.165470294633
N 0.210461791142 0.145197813099 -1.875470294633
H -0.584538208858 -0.289802186901 -2.343470294633
H 0.092461791142 0.061197813099 -0.806470294633
H 0.260461791142 1.130197813099 -2.139470294633
O -0.203689378569 -0.140801250634 1.814381964479
H -0.577689378569 0.552198749366 2.379381964479
H 0.046310621431 -0.915801250634 2.338381964479
