8
Coordinates from XML
H -0.049996694682 0.896925332741 -1.642309919144
N -0.080129792116 -0.093253288505 -1.385008585404
H -0.369238070934 -0.183108138829 -0.406920582022
H -0.750413256041 -0.581657530127 -1.985052511622
H 0.849017947825 -0.505666906995 -1.505303320463
O 0.112599575021 0.131080181167 1.425494501606
H -0.841600090477 -0.039704209645 1.4746796283
H 0.488544595886 -0.371432290551 0.685068918901
