8
Coordinates from XML
H -0.049996694682 0.896925332741 -1.672290102673
N -0.080129792116 -0.093253288505 -1.414988768934
H -0.369238070934 -0.183108138829 -0.436900765551
H -0.750413256041 -0.581657530127 -2.015032695151
H 0.849017947825 -0.505666906995 -1.535283503993
O 0.112599575021 0.131080181167 1.455514318076
H -0.841600090477 -0.039704209645 1.504699444771
H 0.488544595886 -0.371432290551 0.715088735371
