8
Coordinates from XML
H -0.049996694682 0.896925332741 -1.702270286202
N -0.080129792116 -0.093253288505 -1.444968952463
H -0.369238070934 -0.183108138829 -0.46688094908
H -0.750413256041 -0.581657530127 -2.04501287868
H 0.849017947825 -0.505666906995 -1.565263687522
O 0.112599575021 0.131080181167 1.485534134547
H -0.841600090477 -0.039704209645 1.534719261242
H 0.488544595886 -0.371432290551 0.745108551842
