8
Coordinates from XML
H -0.049996694682 0.896925332741 -1.862164598358
N -0.080129792116 -0.093253288505 -1.604863264618
H -0.369238070934 -0.183108138829 -0.626775261236
H -0.750413256041 -0.581657530127 -2.204907190836
H 0.849017947825 -0.505666906995 -1.725157999677
O 0.112599575021 0.131080181167 1.645639822392
H -0.841600090477 -0.039704209645 1.694824949087
H 0.488544595886 -0.371432290551 0.905214239687
