8
Coordinates from XML
H -0.049996694682 0.896925332741 -1.912131570906
N -0.080129792116 -0.093253288505 -1.654830237167
H -0.369238070934 -0.183108138829 -0.676742233784
H -0.750413256041 -0.581657530127 -2.254874163384
H 0.849017947825 -0.505666906995 -1.775124972226
O 0.112599575021 0.131080181167 1.695672849843
H -0.841600090477 -0.039704209645 1.744857976538
H 0.488544595886 -0.371432290551 0.955247267138
