8
Coordinates from XML
H -0.049996694682 0.896925332741 -1.962098543455
N -0.080129792116 -0.093253288505 -1.704797209715
H -0.369238070934 -0.183108138829 -0.726709206333
H -0.750413256041 -0.581657530127 -2.304841135933
H 0.849017947825 -0.505666906995 -1.825091944774
O 0.112599575021 0.131080181167 1.745705877295
H -0.841600090477 -0.039704209645 1.794891003989
H 0.488544595886 -0.371432290551 1.00528029459
