8
Coordinates from XML
H -0.049996694682 0.896925332741 -2.012065516003
N -0.080129792116 -0.093253288505 -1.754764182264
H -0.369238070934 -0.183108138829 -0.776676178881
H -0.750413256041 -0.581657530127 -2.354808108481
H 0.849017947825 -0.505666906995 -1.875058917323
O 0.112599575021 0.131080181167 1.795738904746
H -0.841600090477 -0.039704209645 1.844924031441
H 0.488544595886 -0.371432290551 1.055313322041
