8
Coordinates from XML
H -0.049996694682 0.896925332741 -2.042045699533
N -0.080129792116 -0.093253288505 -1.784744365793
H -0.369238070934 -0.183108138829 -0.806656362411
H -0.750413256041 -0.581657530127 -2.384788292011
H 0.849017947825 -0.505666906995 -1.905039100852
O 0.112599575021 0.131080181167 1.825758721217
H -0.841600090477 -0.039704209645 1.874943847912
H 0.488544595886 -0.371432290551 1.085333138512
