8
Coordinates from XML
H -0.049996694682 0.896925332741 -2.092012672081
N -0.080129792116 -0.093253288505 -1.834711338342
H -0.369238070934 -0.183108138829 -0.856623334959
H -0.750413256041 -0.581657530127 -2.434755264559
H 0.849017947825 -0.505666906995 -1.955006073401
O 0.112599575021 0.131080181167 1.875791748668
H -0.841600090477 -0.039704209645 1.924976875363
H 0.488544595886 -0.371432290551 1.135366165963
