16
Coordinates from XML
H -1.010596462034 -0.161499073119 -3.614193466723
N -5.622722e-06 -0.000116935555 -3.579008794289
H 0.181983312355 1.001127903231 -3.465555498551
H 0.399936329201 -0.511611881048 -2.78719597182
H 0.428555639079 -0.328500451258 -4.449093676067
N 0.092274326804 0.851621361556 2.307056574775
C 0.128953437621 -0.499032341314 1.643439284272
H 0.340374829095 0.774134217589 3.307791713152
H -0.852205891797 1.266564389609 2.239988702133
H 0.762149642514 1.498224686339 1.857713481045
H -0.574938020071 -1.137486666631 2.186102328132
H 1.141806238213 -0.890335492622 1.779714653326
C -0.226092056642 -0.495740073758 0.145674638716
H -1.238788967551 -0.116553142396 -0.011685334023
H -0.175116122582 -1.510494095879 -0.256739851996
H 0.471438675558 0.129913582106 -0.4165703926
