16
Coordinates from XML
H 0.909719040809 0.28600612537 -3.277787680927
N 1.6071684e-05 2.1766611e-05 -3.65092231415
H -0.611936143661 -0.28160767041 -2.879765912156
H -0.424217379028 0.784306843184 -4.154381436584
H 0.126587606797 -0.788590303539 -4.291717788005
N -0.160656339239 -0.209394706273 2.647791296935
C -0.038628049958 -0.509554953065 1.177753333697
H -0.331944018348 -1.076103742533 3.184917828909
H -0.945254211503 0.440122631249 2.824573950205
H 0.706201721688 0.225803182969 3.005419474664
H -0.97172725058 -0.994753480492 0.87529910628
H 0.784518679185 -1.222308677045 1.068338895196
C 0.218508649194 0.717261463761 0.284350136448
H -0.597832336921 1.438379019088 0.371967424057
H 0.294274689473 0.412860284405 -0.762483719877
H 1.151794268013 1.211860908649 0.564458039802
