16
Coordinates from XML
H -0.688409185628 -0.094840761117 -2.409909780617
N -2.7863228e-05 -0.000163738757 -3.162068950213
H -0.408746983566 -0.327534238566 -4.04198945033
H 0.269772019747 0.983161757772 -3.256022029042
H 0.827205471796 -0.561450958922 -2.940281087821
N 0.201312235161 1.228752725545 1.173477874796
C -0.540586786172 -0.077433128976 1.076199685597
H -0.40910424456 2.01717199973 0.899953281244
H 1.02622267403 1.228134472561 0.550387925423
H 0.526887316511 1.393303769418 2.140774021001
H -0.882129247933 -0.171045636672 0.040750153211
H -1.412597240231 0.005172619716 1.732198150834
C 0.28078881615 -1.320368117993 1.463267907602
H 1.152654099051 -1.426573607312 0.8131361934
H -0.329505714584 -2.221658739346 1.365915479702
H 0.624405389626 -1.250906413489 2.498262505047
