16
Coordinates from XML
H -0.534474965043 -0.426039664879 -3.953172034996
N 2.5028924e-05 -5.8180859e-05 -3.190659391349
H 0.488177289567 -0.731394959269 -2.665933999384
H 0.683866750274 0.656184856374 -3.578285198313
H -0.637521156367 0.500975444584 -2.565320796829
N -0.15975307574 0.484227716751 0.111413848672
C 0.095485072364 0.442852295944 1.59436369705
H -0.142497390733 1.458076323793 -0.235501221335
H -1.083912530284 0.078419078975 -0.112119932856
H 0.561214401138 -0.052886324141 -0.398931542666
H -0.680226666136 1.05378847505 2.066167228949
H 1.069169921883 0.91395170932 1.760385034934
C 0.091196293235 -0.966076120576 2.214258364713
H -0.876920984856 -1.451123471864 2.067364096035
H 0.283828424141 -0.906668406761 3.288327859337
H 0.865831297888 -1.590567738754 1.762526228276
