16
Coordinates from XML
H -0.256548766616 0.953128695557 -3.247160174901
N 4.7067098e-05 -0.000160444318 -2.975177833715
H 0.995546077623 -0.030993578461 -2.737451335649
H -0.553993975524 -0.28393496694 -2.162122648994
H -0.184840125279 -0.638748832784 -3.75400373609
N -0.310434710149 1.168896428468 0.861751118529
C 0.48710080159 0.039606283323 1.457267336691
H 0.145421570295 2.077573361273 1.050245726587
H -1.262501613327 1.19602068969 1.263685921358
H -0.394950062133 1.0566491567 -0.162453802061
H 0.564124274434 0.238197646839 2.530672732553
H 1.486183103083 0.09041731961 1.013631538388
C -0.106697212177 -1.362701746954 1.232983626699
H -1.10224405525 -1.437564333517 1.677260566998
H 0.530906253063 -2.120978890654 1.694220320876
H -0.183868418734 -1.584722384183 0.16580860065
