16
Coordinates from XML
H 0.321714201205 0.27474483377 -4.108924219653
N -0.000123293007 -0.00010937126 -3.176480230291
H -0.975503157682 0.286394529602 -3.053873197953
H 0.072216243708 -1.016615996789 -3.076333030216
H 0.581110970182 0.455065989609 -2.466881532326
N 0.90008893334 0.820058290141 1.511618414008
C -0.193437262853 0.144879632292 0.727824481443
H 1.286021939746 1.621658921519 0.984815722062
H 1.671728264272 0.16012471924 1.705986941185
H 0.539579518219 1.170998647289 2.414730722325
H 0.247191162038 -0.17071663664 -0.222867832145
H -0.956281492359 0.904522084458 0.531427041345
C -0.838434768397 -1.066309446053 1.425224158703
H -0.094104395914 -1.841705802047 1.622284329741
H -1.618883938074 -1.495301092648 0.791878317711
H -1.292903651652 -0.770520741587 2.373948655679
