13
Coordinates from XML
H -1.00947 -0.169617 -2.67318
N 1.21554e-05 2.00409e-05 -2.70058
H 0.473183 -0.653672 -2.07028
H 0.343397 -0.137432 -3.65543
H 0.192837 0.960785 -2.40343
N -0.0385138 -0.110785 2.19737
C 0.0441039 0.126843 0.743377
H 0.495057 -0.946192 2.47148
H -1.01151 -0.252228 2.49928
H 0.337891 0.685112 2.72914
H -0.368417 -0.748385 0.238016
H 1.09583 0.268619 0.487374
H -0.538979 1.02173 0.517605
