13
Coordinates from XML
H -0.14544 -0.36309 -2.0356
N -6.9293e-05 4.93256e-05 -2.98195
H -0.624881 0.79532 -3.14207
H 0.972364 0.303745 -3.08534
H -0.202335 -0.735813 -3.6647
N 0.406148 -0.274361 1.19529
C -0.465058 0.314152 2.23068
H 0.817478 -1.1622 1.51196
H 1.1813 0.357301 0.954425
H -0.116593 -0.466464 0.33056
H 0.14504 0.49365 3.11789
H -1.26327 -0.400238 2.44106
H -0.868501 1.24861 1.83597
