13
Coordinates from XML
H -0.331627937299 -0.078458542531 -1.901101702482
N -2.1825731e-05 -5.1850994e-05 -2.866744378368
H 0.559251804537 0.851742789153 -2.967450621982
H 0.57511848627 -0.815269306831 -3.097357281761
H -0.802862039842 0.041769999327 -3.500973606205
N 0.136948427322 0.302947635943 1.010928290589
C -0.156827339158 -0.34689470304 2.302741912399
H -0.711618364632 0.706660353156 0.592971137816
H 0.526490319866 -0.366839701031 0.334524530116
H 0.819914300327 1.064094208282 1.121076425968
H -0.883331613843 -1.140768049345 2.119593942467
H -0.565051425944 0.411884329308 2.973091436929
H 0.778526567329 -0.752940409875 2.692631042256
