13
Coordinates from XML
H 0.255123 -0.976052 -2.57601
N 5.35082e-05 1.24654e-05 -2.75155
H 0.782272 0.481007 -3.20461
H -0.821176 0.0336295 -3.36229
H -0.21598 0.46137 -1.86328
N -0.318149 -0.04138 0.939836
C 0.364291 0.0473742 2.24513
H -1.29675 -0.338653 1.04804
H 0.144598 -0.719628 0.32038
H -0.322135 0.866548 0.456544
H 0.335053 -0.942112 2.70518
H -0.171437 0.778964 2.85302
H 1.39261 0.365625 2.06335
