13
Coordinates from XML
H -0.0535777 0.193612 -2.06743
N -1.32309e-05 -6.58818e-05 -3.07152
H 0.142889 0.876541 -3.58106
H 0.783217 -0.633472 -3.25563
H -0.872587 -0.436925 -3.38188
N 0.0783666 0.375639 1.15745
C -0.0897332 -0.430141 2.38213
H -0.148817 -0.16996 0.315755
H 1.04627 0.709071 1.05816
H -0.534243 1.20181 1.16542
H 0.583269 -1.28682 2.31319
H -1.13172 -0.752269 2.42956
H 0.165068 0.201679 3.23516
