13
Coordinates from XML
H -0.053577708619 0.193611706005 -2.067434934507
N -1.3230903e-05 -6.5881757e-05 -3.071524491631
H 0.142889411843 0.876540568819 -3.581056448927
H 0.783216796033 -0.633471749676 -3.255632941711
H -0.872586653776 -0.436925138349 -3.38187558576
N 0.078366556703 0.375638687178 1.157448335377
C -0.089733231533 -0.430140555422 2.382129507516
H -0.148817089589 -0.169960103934 0.315755226225
H 1.046274410233 0.709070896126 1.05816410143
H -0.534242554072 1.201813993524 1.165419569876
H 0.58326901914 -1.286820878023 2.313185142569
H -1.131724109077 -0.75226888348 2.429556940271
H 0.165068139654 0.201679382674 3.235155537052
