13
Coordinates from XML
H -0.980047 -0.262928 -3.02974
N 6.79826e-05 -8.7205e-05 -2.89239
H 0.602205 -0.642804 -3.41472
H 0.147554 0.955611 -3.2292
H 0.230464 -0.0502536 -1.89592
N -0.36297 0.513645 1.34893
C 0.415611 -0.588162 1.94661
H -1.33396 0.513272 1.68792
H -0.393133 0.43803 0.323628
H 0.0450884 1.42912 1.57983
H -0.0654479 -1.52719 1.6666
H 0.410002 -0.45186 3.02973
H 1.43095 -0.533417 1.54929
