13
Coordinates from XML
H -0.0301661 0.442709 -2.03346
N -3.17721e-05 7.77632e-06 -2.95632
H -0.392807 0.638292 -3.65404
H 0.970861 -0.216108 -3.19965
H -0.548019 -0.864819 -2.93806
N 0.185073 -0.0590759 1.00367
C -0.211915 0.0676331 2.4192
H 0.276156 -1.04539 0.726845
H 1.08965 0.397018 0.825885
H -0.508112 0.374724 0.379783
H 0.559772 -0.409231 3.02639
H -1.17391 -0.433512 2.54241
H -0.291212 1.13173 2.64981
