13
Coordinates from XML
H -0.140346267933 -0.313877162824 -3.626705670091
N 6.849497e-05 -4.2948287e-05 -2.662149927718
H 1.001208454702 0.005219228673 -2.447268703499
H -0.377557702168 0.945428659334 -2.552468186223
H -0.483044217099 -0.636973166204 -2.022251345956
N -0.392490179276 0.258806724179 2.000108788304
C 0.449415388172 -0.296346761358 0.922898816665
H -1.387014587337 0.255058594676 1.738107083546
H -0.132916170597 1.230442984228 2.215571829625
H -0.298879747606 -0.286089932769 2.867428694872
H 0.30642408752 0.322244118714 0.034931845979
H 0.126296796427 -1.323324319134 0.742143508327
H 1.487161653788 -0.264933425134 1.260344324128
