13
Coordinates from XML
H -0.519144 -0.43097 -2.08368
N -1.99284e-05 5.65063e-05 -2.85395
H 0.367084 -0.731255 -3.4695
H -0.624854 0.612313 -3.38618
H 0.776784 0.550097 -2.47635
N 0.131913 -0.313813 1.00818
C -0.151035 0.359338 2.29044
H 1.11771 -0.600011 0.944702
H -0.0629153 0.304246 0.209481
H -0.443596 -1.15852 0.893388
H 0.487287 1.24272 2.35181
H 0.0743052 -0.344459 3.09397
H -1.20688 0.636707 2.29612
