13
Coordinates from XML
H -0.519143736076 -0.430970460409 -2.083684532218
N -1.9928376e-05 5.6506261e-05 -2.853945673833
H 0.36708364442 -0.731254965939 -3.46949530422
H -0.624854399304 0.612312726297 -3.38617907655
H 0.77678408177 0.550096632616 -2.47634856153
N 0.131912937493 -0.313813078176 1.008182967454
C -0.151035157228 0.359338018661 2.290442565398
H 1.117711321629 -0.600011262539 0.944701591418
H -0.062915343532 0.304246307317 0.209481178977
H -0.44359608955 -1.158520496149 0.893388203572
H 0.487287023049 1.242720830547 2.351811383464
H 0.074305245522 -0.344459031003 3.093967565489
H -1.206879672153 0.63670720059 2.29612386983
