13
Coordinates from XML
H -0.112058262889 -0.805536953423 -3.335557664517
N 3.0137641e-05 5.932487e-06 -2.71337372915
H -0.62437323478 -0.101180157033 -1.908162791695
H 0.970108781818 0.048421138733 -2.389102882611
H -0.233567679718 0.858241035372 -3.220732337928
N -0.171093886479 -0.008919605529 2.192965165052
C 0.195917594718 0.010200780729 0.763868008279
H 0.363540015475 -0.720935265608 2.707686478663
H -1.169711525238 -0.219503792986 2.320625345034
H 0.013182119698 0.899197395695 2.63937861202
H -0.02215270647 -0.976029887085 0.349886192733
H 1.26143742502 0.237761048655 0.6957150502
H -0.402342524857 0.781956184529 0.275757358906
