13
Coordinates from XML
H 0.97478 -0.295952 -2.71145
N 4.45027e-05 6.56718e-05 -2.81556
H -0.0700452 1.00812 -2.65006
H -0.322029 -0.21336 -3.76386
H -0.582432 -0.498578 -2.13687
N -0.288702 -0.371211 1.08229
C 0.330589 0.425049 2.15924
H -0.228989 -1.37883 1.27948
H 0.174607 -0.204635 0.179252
H -1.28358 -0.136733 0.967556
H 1.37954 0.131461 2.23065
H -0.202638 0.205088 3.08609
H 0.235231 1.47926 1.89217
