13
Coordinates from XML
H -1.002599909201 -0.12504102694 -2.610583943377
N -4.41796e-07 -2.1700437e-05 -2.777138666996
H 0.199188784166 0.992441793283 -2.931484758275
H 0.525140512122 -0.330928752214 -1.962721273025
H 0.278170935625 -0.536571024797 -3.603748428197
N 0.034278720369 0.129699255502 0.888049885667
C -0.039238454548 -0.148518174014 2.335313506058
H 0.769004133492 -0.430016715008 0.435684613274
H 0.244228282196 1.120172357545 0.70704097534
H -0.85447022792 -0.089001056851 0.418779622077
H 0.928656378465 0.102529528423 2.77319610828
H -0.263431548685 -1.209572723813 2.460460255488
H -0.83295619323 0.472582702813 2.754860204418
