13
Coordinates from XML
H -0.946654 0.355219 -2.81114
N -2.18388e-05 -0.00011737 -2.64928
H -0.0131932 -1.02392 -2.66062
H 0.623399 0.341415 -3.38633
H 0.336269 0.326855 -1.73903
N 0.156497 0.668906 1.52658
C -0.17919 -0.765941 1.44969
H 1.06495 0.817185 1.98534
H -0.549554 1.19077 2.06233
H 0.209744 1.09199 0.590583
H -0.220486 -1.1543 2.46904
H 0.60347 -1.26155 0.872137
H -1.14848 -0.856111 0.955606
