13
Coordinates from XML
H 0.360989 -0.224577 -3.31204
N -9.68808e-05 6.98646e-05 -2.38052
H -0.952225 -0.364735 -2.28643
H 0.600728 -0.426614 -1.66953
H -0.00984496 1.01618 -2.25416
N 0.549996 -0.397752 1.45134
C -0.629776 0.45545 1.21142
H 1.24814 -0.290746 0.703752
H 0.291027 -1.39228 1.49285
H 1.00963 -0.16032 2.34032
H -1.0704 0.155774 0.25872
H -0.290678 1.4926 1.17819
H -1.32922 0.297282 2.03454
