13
Coordinates from XML
H -0.569177746294 0.855557003783 -4.542473582205
N -0.011720612322 0.003451879995 -4.438916430465
H 0.342600427384 -0.058225879529 -3.48028924111
H -0.595563120288 -0.812994943307 -4.639948391228
H 0.775637836331 0.029051385428 -5.092585060042
N 0.322030452215 -0.094196719329 3.131528164058
C -0.352977342848 0.103266789594 1.775298378515
H 1.332106599091 0.052174363429 3.063149803533
H 0.164847227786 -1.041035845131 3.485152867841
H -0.044829336199 0.564504279981 3.823001611912
H 0.065193780804 -0.613396504573 1.076036703075
H -0.160762532167 1.116845342461 1.44014197287
H -1.418765992984 -0.061218592241 1.894950170117
