13
Coordinates from XML
H -0.569178 0.855557 -4.59367
N -0.0117206 0.00345188 -4.49011
H 0.3426 -0.0582259 -3.53148
H -0.595563 -0.812995 -4.69114
H 0.775638 0.0290514 -5.14378
N 0.32203 -0.0941967 3.16033
C -0.352977 0.103267 1.8041
H 1.33211 0.0521744 3.09196
H 0.164847 -1.04104 3.51396
H -0.0448293 0.564504 3.85181
H 0.0651938 -0.613397 1.10484
H -0.160763 1.11685 1.46895
H -1.41877 -0.0612186 1.92376
