13
Coordinates from XML
H -0.569177746294 0.855557003783 -4.772844897338
N -0.011720612322 0.003451879995 -4.669287745598
H 0.342600427384 -0.058225879529 -3.710660556244
H -0.595563120288 -0.812994943307 -4.870319706361
H 0.775637836331 0.029051385428 -5.322956375175
N 0.322030452215 -0.094196719329 3.261156848925
C -0.352977342848 0.103266789594 1.904927063382
H 1.332106599091 0.052174363429 3.1927784884
H 0.164847227786 -1.041035845131 3.614781552707
H -0.044829336199 0.564504279981 3.952630296778
H 0.065193780804 -0.613396504573 1.205665387941
H -0.160762532167 1.116845342461 1.569770657736
H -1.418765992984 -0.061218592241 2.024578854984
