13
Coordinates from XML
H -0.569177746294 0.855557003783 -4.93922418049
N -0.011720612322 0.003451879995 -4.83566702875
H 0.342600427384 -0.058225879529 -3.877039839396
H -0.595563120288 -0.812994943307 -5.036698989513
H 0.775637836331 0.029051385428 -5.489335658327
N 0.322030452215 -0.094196719329 3.354777565773
C -0.352977342848 0.103266789594 1.99854778023
H 1.332106599091 0.052174363429 3.286399205248
H 0.164847227786 -1.041035845131 3.708402269555
H -0.044829336199 0.564504279981 4.046251013626
H 0.065193780804 -0.613396504573 1.299286104789
H -0.160762532167 1.116845342461 1.663391374585
H -1.418765992984 -0.061218592241 2.118199571832
