13
Coordinates from XML
H -0.569178 0.855557 -4.93922
N -0.0117206 0.00345188 -4.83567
H 0.3426 -0.0582259 -3.87704
H -0.595563 -0.812995 -5.0367
H 0.775638 0.0290514 -5.48934
N 0.32203 -0.0941967 3.35478
C -0.352977 0.103267 1.99855
H 1.33211 0.0521744 3.2864
H 0.164847 -1.04104 3.7084
H -0.0448293 0.564504 4.04625
H 0.0651938 -0.613397 1.29929
H -0.160763 1.11685 1.66339
H -1.41877 -0.0612186 2.1182
