13
Coordinates from XML
H -0.569177746294 0.855557003783 -4.990417806075
N -0.011720612322 0.003451879995 -4.886860654335
H 0.342600427384 -0.058225879529 -3.928233464981
H -0.595563120288 -0.812994943307 -5.087892615098
H 0.775637836331 0.029051385428 -5.540529283912
N 0.322030452215 -0.094196719329 3.383583940188
C -0.352977342848 0.103266789594 2.027354154644
H 1.332106599091 0.052174363429 3.315205579663
H 0.164847227786 -1.041035845131 3.73720864397
H -0.044829336199 0.564504279981 4.075057388041
H 0.065193780804 -0.613396504573 1.328092479204
H -0.160762532167 1.116845342461 1.692197748999
H -1.418765992984 -0.061218592241 2.147005946247
