13
Coordinates from XML
H -0.569178 0.855557 -5.1056
N -0.0117206 0.00345188 -5.00205
H 0.3426 -0.0582259 -4.04342
H -0.595563 -0.812995 -5.20308
H 0.775638 0.0290514 -5.65571
N 0.32203 -0.0941967 3.4484
C -0.352977 0.103267 2.09217
H 1.33211 0.0521744 3.38002
H 0.164847 -1.04104 3.80202
H -0.0448293 0.564504 4.13987
H 0.0651938 -0.613397 1.39291
H -0.160763 1.11685 1.75701
H -1.41877 -0.0612186 2.21182
