13
Coordinates from XML
H -0.569178 0.855557 -5.1696
N -0.0117206 0.00345188 -5.06604
H 0.3426 -0.0582259 -4.10741
H -0.595563 -0.812995 -5.26707
H 0.775638 0.0290514 -5.71971
N 0.32203 -0.0941967 3.48441
C -0.352977 0.103267 2.12818
H 1.33211 0.0521744 3.41603
H 0.164847 -1.04104 3.83803
H -0.0448293 0.564504 4.17588
H 0.0651938 -0.613397 1.42891
H -0.160763 1.11685 1.79302
H -1.41877 -0.0612186 2.24783
