13
Coordinates from XML
H -0.569178 0.855557 -5.22079
N -0.0117206 0.00345188 -5.11723
H 0.3426 -0.0582259 -4.1586
H -0.595563 -0.812995 -5.31826
H 0.775638 0.0290514 -5.7709
N 0.32203 -0.0941967 3.51321
C -0.352977 0.103267 2.15698
H 1.33211 0.0521744 3.44483
H 0.164847 -1.04104 3.86684
H -0.0448293 0.564504 4.20469
H 0.0651938 -0.613397 1.45772
H -0.160763 1.11685 1.82183
H -1.41877 -0.0612186 2.27663
