13
Coordinates from XML
H -0.569177746294 0.855557003783 -5.220789121209
N -0.011720612322 0.003451879995 -5.117231969469
H 0.342600427384 -0.058225879529 -4.158604780114
H -0.595563120288 -0.812994943307 -5.318263930231
H 0.775637836331 0.029051385428 -5.770900599045
N 0.322030452215 -0.094196719329 3.513212625054
C -0.352977342848 0.103266789594 2.156982839511
H 1.332106599091 0.052174363429 3.44483426453
H 0.164847227786 -1.041035845131 3.866837328837
H -0.044829336199 0.564504279981 4.204686072908
H 0.065193780804 -0.613396504573 1.457721164071
H -0.160762532167 1.116845342461 1.821826433866
H -1.418765992984 -0.061218592241 2.276634631114
