13
Coordinates from XML
H -0.569178 0.855557 -5.28478
N -0.0117206 0.00345188 -5.18122
H 0.3426 -0.0582259 -4.2226
H -0.595563 -0.812995 -5.38226
H 0.775638 0.0290514 -5.83489
N 0.32203 -0.0941967 3.54922
C -0.352977 0.103267 2.19299
H 1.33211 0.0521744 3.48084
H 0.164847 -1.04104 3.90285
H -0.0448293 0.564504 4.24069
H 0.0651938 -0.613397 1.49373
H -0.160763 1.11685 1.85783
H -1.41877 -0.0612186 2.31264
