13
Coordinates from XML
H -0.852334989686 0.083533720473 -1.351188995693
N 0.011930439274 -0.022146411001 -1.889187750333
H 0.7529072508 0.53776333471 -1.458179542978
H 0.290191615408 -1.007215857707 -1.898145521245
H -0.142389058681 0.297471076431 -2.849344765053
N -0.332696235536 0.611307983971 1.274772139436
C 0.364842336656 -0.670159139912 0.821706423831
H -0.484839118297 0.607994512007 2.286303394846
H -1.243305811489 0.713687187398 0.820272385634
H 0.228142724968 1.435227483262 1.044066788387
H -0.263269647648 -1.514714926937 1.085602453319
H 1.322460371027 -0.737117278483 1.326782794739
H 0.505153791704 -0.623176440658 -0.253180900675
