13
Coordinates from XML
H -0.852335 0.0835337 -1.37679
N 0.0119304 -0.0221464 -1.91478
H 0.752907 0.537763 -1.48378
H 0.290192 -1.00722 -1.92374
H -0.142389 0.297471 -2.87494
N -0.332696 0.611308 1.28918
C 0.364842 -0.670159 0.83611
H -0.484839 0.607995 2.30071
H -1.24331 0.713687 0.834676
H 0.228143 1.43523 1.05847
H -0.26327 -1.51471 1.10001
H 1.32246 -0.737117 1.34119
H 0.505154 -0.623176 -0.238778
