13
Coordinates from XML
H -0.852335 0.0835337 -1.56876
N 0.0119304 -0.0221464 -2.10676
H 0.752907 0.537763 -1.67575
H 0.290192 -1.00722 -2.11572
H -0.142389 0.297471 -3.06692
N -0.332696 0.611308 1.3972
C 0.364842 -0.670159 0.944134
H -0.484839 0.607995 2.40873
H -1.24331 0.713687 0.942699
H 0.228143 1.43523 1.16649
H -0.26327 -1.51471 1.20803
H 1.32246 -0.737117 1.44921
H 0.505154 -0.623176 -0.130754
