13
Coordinates from XML
H -0.852334989686 0.083533720473 -1.56876190443
N 0.011930439274 -0.022146411001 -2.10676065907
H 0.7529072508 0.53776333471 -1.675752451715
H 0.290191615408 -1.007215857707 -2.115718429982
H -0.142389058681 0.297471076431 -3.06691767379
N -0.332696235536 0.611307983971 1.397199230699
C 0.364842336656 -0.670159139912 0.944133515094
H -0.484839118297 0.607994512007 2.408730486109
H -1.243305811489 0.713687187398 0.942699476897
H 0.228142724968 1.435227483262 1.16649387965
H -0.263269647648 -1.514714926937 1.208029544582
H 1.322460371027 -0.737117278483 1.449209886002
H 0.505153791704 -0.623176440658 -0.130753809412
