13
Coordinates from XML
H -0.852334989686 0.083533720473 -1.607157123619
N 0.011930439274 -0.022146411001 -2.145155878259
H 0.7529072508 0.53776333471 -1.714147670904
H 0.290191615408 -1.007215857707 -2.154113649171
H -0.142389058681 0.297471076431 -3.105312892978
N -0.332696235536 0.611307983971 1.41880401151
C 0.364842336656 -0.670159139912 0.965738295905
H -0.484839118297 0.607994512007 2.43033526692
H -1.243305811489 0.713687187398 0.964304257708
H 0.228142724968 1.435227483262 1.188098660462
H -0.263269647648 -1.514714926937 1.229634325393
H 1.322460371027 -0.737117278483 1.470814666813
H 0.505153791704 -0.623176440658 -0.109149028601
