13
Coordinates from XML
H -0.852335 0.0835337 -1.74794
N 0.0119304 -0.0221464 -2.28594
H 0.752907 0.537763 -1.85493
H 0.290192 -1.00722 -2.2949
H -0.142389 0.297471 -3.2461
N -0.332696 0.611308 1.49802
C 0.364842 -0.670159 1.04496
H -0.484839 0.607995 2.50955
H -1.24331 0.713687 1.04352
H 0.228143 1.43523 1.26732
H -0.26327 -1.51471 1.30885
H 1.32246 -0.737117 1.55003
H 0.505154 -0.623176 -0.0299315
