13
Coordinates from XML
H -0.852334989686 0.083533720473 -1.811931625959
N 0.011930439274 -0.022146411001 -2.3499303806
H 0.7529072508 0.53776333471 -1.918922173245
H 0.290191615408 -1.007215857707 -2.358888151512
H -0.142389058681 0.297471076431 -3.310087395319
N -0.332696235536 0.611307983971 1.534029509169
C 0.364842336656 -0.670159139912 1.080963793564
H -0.484839118297 0.607994512007 2.545560764579
H -1.243305811489 0.713687187398 1.079529755368
H 0.228142724968 1.435227483262 1.303324158121
H -0.263269647648 -1.514714926937 1.344859823052
H 1.322460371027 -0.737117278483 1.586040164473
H 0.505153791704 -0.623176440658 0.006076469058
