13
Coordinates from XML
H -0.852335 0.0835337 -1.86313
N 0.0119304 -0.0221464 -2.40112
H 0.752907 0.537763 -1.97012
H 0.290192 -1.00722 -2.41008
H -0.142389 0.297471 -3.36128
N -0.332696 0.611308 1.56284
C 0.364842 -0.670159 1.10977
H -0.484839 0.607995 2.57437
H -1.24331 0.713687 1.10834
H 0.228143 1.43523 1.33213
H -0.26327 -1.51471 1.37367
H 1.32246 -0.737117 1.61485
H 0.505154 -0.623176 0.0348828
