13
Coordinates from XML
H -0.852334989686 0.083533720473 -1.888722064337
N 0.011930439274 -0.022146411001 -2.426720818978
H 0.7529072508 0.53776333471 -1.995712611622
H 0.290191615408 -1.007215857707 -2.43567858989
H -0.142389058681 0.297471076431 -3.386877833697
N -0.332696235536 0.611307983971 1.577239070791
C 0.364842336656 -0.670159139912 1.124173355186
H -0.484839118297 0.607994512007 2.588770326202
H -1.243305811489 0.713687187398 1.12273931699
H 0.228142724968 1.435227483262 1.346533719743
H -0.263269647648 -1.514714926937 1.388069384675
H 1.322460371027 -0.737117278483 1.629249726095
H 0.505153791704 -0.623176440658 0.04928603068
