13
Coordinates from XML
H -0.852334989686 0.083533720473 -1.927117283526
N 0.011930439274 -0.022146411001 -2.465116038167
H 0.7529072508 0.53776333471 -2.034107830811
H 0.290191615408 -1.007215857707 -2.474073809079
H -0.142389058681 0.297471076431 -3.425273052886
N -0.332696235536 0.611307983971 1.598843851602
C 0.364842336656 -0.670159139912 1.145778135997
H -0.484839118297 0.607994512007 2.610375107013
H -1.243305811489 0.713687187398 1.144344097801
H 0.228142724968 1.435227483262 1.368138500554
H -0.263269647648 -1.514714926937 1.409674165486
H 1.322460371027 -0.737117278483 1.650854506906
H 0.505153791704 -0.623176440658 0.070890811491
