8
Coordinates from XML
O 0.256851251905 -0.127967294168 -0.946116916322
O -0.559511553522 0.246376713171 -3.05570222488
C 0.296230595652 -0.115888246908 -2.205175756847
H 1.275466034223 -0.498983284487 -2.651989373504
O -0.526178789274 -1.030301742006 1.986241899173
O 0.481255727023 1.021196777234 1.803590972733
C 0.044033273027 0.00889273539 2.412691007692
H 0.189470593541 0.0382195012 3.54551676067
