8
Coordinates from XML
O 0.444059503028 0.955350735139 -2.24525820775
O -0.692820489407 -0.724701026795 -1.176678870487
C 0.243433398519 -0.225812087859 -1.855990495555
H 1.048207937876 -0.97209836133 -2.173324702395
O 0.874213199895 -0.429065618426 2.390154306996
O -0.710401609051 0.732013466092 1.20785861354
C -0.160280886512 -0.296549492755 1.683622452352
H -0.690082099617 -1.276812223084 1.431230071086
