8
Coordinates from XML
O 0.604606902315 -0.69038468733 -2.949405363698
O -0.364933118641 0.572545385057 -1.299577609044
C -0.234607374397 0.115277206259 -2.466130999612
H -1.010039186485 0.496340296123 -3.213662060068
O -0.650863457914 0.00989207292 3.200038890363
O 0.785658960662 0.278227371562 1.433309893479
C -0.131974302433 -0.281966852811 2.089859530172
H -0.568234909862 -1.214064657304 1.593697635964
