8
Coordinates from XML
O 0.121583896142 -0.158407794168 -3.582606934234
O 0.176493248667 0.341601961791 -1.345665485078
C -0.291669520312 -0.179283146039 -2.392770124636
H -1.25587910768 -0.771952718326 -2.236728752844
O 0.245590146073 -0.623463940142 3.386781471108
O -0.575330233224 0.557786359299 1.601376950859
C 0.322663433083 0.064246296698 2.334146615817
H 1.389353770258 0.276603263946 1.984314508889
