8
Coordinates from XML
O 0.349556379987 -0.157430371055 -1.455259739797
O -0.049396510478 -0.017313847893 -3.708731681297
C -0.293712204245 0.171056181325 -2.487358530342
H -1.264649455101 0.736454746997 -2.280207433709
O 0.299376984527 -0.556644225515 1.577430968882
O -0.614913744584 0.422266615061 3.438274290837
C 0.308761465556 0.131558827593 2.632520675593
H 1.329502890569 0.566347941287 2.905195628376
