8
Coordinates from XML
O -0.570518518898 0.953861666483 -1.638168424016
O 0.246250372343 -1.045646446228 -2.407445828794
C 0.317313284552 0.089866461575 -1.86662580446
H 1.366240905925 0.38697490253 -1.524889532703
O 0.193638285714 -0.260964086082 3.083475945694
O 0.101104717116 0.070528829341 0.816653979658
C -0.28840784278 0.18640524875 2.009037483866
H -1.241827592361 0.802541953355 2.138159915488
