8
Coordinates from XML
O 0.215712630045 -0.242478792031 -3.533611390273
O 0.129151935447 0.318311745096 -1.312135966231
C -0.337507654347 -0.074256378366 -2.414426715396
H -1.45318058934 -0.319699233762 -2.396042840394
O -0.486565266663 -0.869478991961 3.013884289187
O 0.375722445791 1.051915959517 2.107444450373
C 0.108416609766 -0.178567249039 2.14465282967
H 0.466833497781 -0.768904209501 1.234517747664
