8
Coordinates from XML
O 0.462914205833 0.770370189055 -1.68675346889
O -0.147441259469 -0.73227101494 -3.307391447599
C -0.30873115919 -0.037254420832 -2.269189491252
H -1.329269973331 -0.160374117099 -1.770542993999
O 0.554106287916 0.412799147184 3.351644420668
O -0.720289164877 -0.600366663289 1.737227154163
C 0.162579667753 0.183567715433 2.176448413016
H 0.700129005269 0.79041783792 1.371414315245
