9
Coordinates from XML
N -0.018052044525 0.251271792138 -2.389435641411
C 0.020665914337 -0.287657893766 -3.762547950479
H -0.454818669188 1.182047368017 -2.364346143043
H 0.927816143905 0.342597532429 -1.995896584548
H -0.556591483682 -0.360321771241 -1.761862788505
H 0.603122388039 0.402436323392 -4.37581865554
H -1.007594026191 -0.360216047827 -4.12196110965
H 0.492711495415 -1.271176183514 -3.722071746167
Br 1.405772e-06 -1.9567607e-05 1.230328791842
