9
Coordinates from XML
N -0.333998134888 -0.43815228248 -2.603367491535
C 0.382368527997 0.501626381938 -3.487118908062
H -1.276005959978 -0.644602080232 -2.960771294645
H -0.440095839642 -0.054019188165 -1.655177081914
H 0.168408208218 -1.331842405702 -2.520754356605
H -0.197997386433 1.425011668596 -3.533179170225
H 0.462218548052 0.038531897392 -4.472475941162
H 1.369326196542 0.67930996835 -3.055706479383
Br 2.6010291e-05 3.4123109e-05 1.224570134701
