9
Coordinates from XML
N 0.338131181245 -0.321963427672 -2.595459114553
C -0.387100774025 0.36860898294 -3.679216493654
H 1.180196332384 0.198700479446 -2.316939605249
H 0.637439509852 -1.262477921892 -2.884815332024
H -0.250774476318 -0.428345685208 -1.758923376063
H 0.287563797066 0.449968297448 -4.533496839008
H -0.676165473815 1.35514939858 -3.311873850274
H -1.265168198799 -0.230449429483 -3.928013993755
Br -2.6332212e-05 2.5074677e-05 1.259221426169
