9
Coordinates from XML
N -0.368341 0.000450935 -2.56235
C 0.421696 -0.000529663 -3.80864
H -0.392295 -0.933842 -2.1331
H -1.34102 0.286477 -2.73548
H 0.0263392 0.649582 -1.86897
H -0.0454781 -0.704745 -4.49959
H 1.43824 -0.310847 -3.55942
H 0.408762 1.01342 -4.21301
Br 2.86857e-05 -3.6303e-08 1.27654
