9
Coordinates from XML
N 0.156843689352 -0.192971571302 -2.885992511525
C -0.179563437792 0.22093803577 -4.26181618554
H -0.084842929351 0.538712779071 -2.204843974304
H 1.162194747401 -0.386854511966 -2.788224084114
H -0.350466909003 -1.046230164267 -2.616725301625
H 0.387481774462 1.126303602282 -4.486225294611
H -1.253896120098 0.410938811016 -4.300156805432
H 0.099275854807 -0.593504150183 -4.933162709061
Br -1.2214756e-05 1.5029525e-05 1.432503589246
