9
Coordinates from XML
N -0.009873174442 -0.197821438713 -3.745355789466
C 0.01129476665 0.226487512844 -2.332240248579
H -0.304662343878 0.570018226071 -4.362817800256
H -0.661175470153 -0.980245535213 -3.891977284537
H 0.920120252628 -0.506627412859 -4.05787810217
H -0.998802763654 0.540588128558 -2.062740132656
H 0.716974005048 1.054596794077 -2.242725775843
H 0.330182662094 -0.627684306784 -1.731844884929
Br 7.68149e-07 1.5406967e-05 1.253535660794
