9
Coordinates from XML
N -0.039250211754 0.170491798903 -3.410501724225
C 0.044929726669 -0.195177255432 -1.983413226384
H -0.14992234183 1.185822648834 -3.531301909661
H -0.840520595383 -0.284641084636 -3.867338501028
H 0.808560279427 -0.111224363013 -3.920180520291
H -0.87911473419 0.128444064641 -1.500714971209
H 0.910235516034 0.316690487929 -1.557974259906
H 0.160908189652 -1.278982745989 -1.922682387726
Br 3.056209e-06 -1.3276652e-05 1.114901954486
