9
Coordinates from XML
N -0.520774955368 0.447578967353 -2.603541455674
C 0.596217080109 -0.512411066137 -2.693705906982
H -0.346175728441 1.158958149671 -1.881604817928
H -1.402741480518 -0.024978790889 -2.365414969034
H -0.664494951638 0.940101126954 -3.494992848053
H 0.697098734503 -0.999554622215 -1.722057525324
H 1.498230072926 0.04762824133 -2.94765382464
H 0.351682475016 -1.2370528044 -3.472725006927
Br 4.0557609e-05 -3.4856581e-05 1.07441188521
