9
Coordinates from XML
N 0.191036891561 0.140232828786 -2.853134930612
C -0.218702043922 -0.160536695708 -4.238426740263
H 0.55260584482 1.099373488295 -2.769141911167
H 0.931375433577 -0.498583204786 -2.53424164367
H -0.598720160498 0.04894701839 -2.200547925268
H 0.658378921317 -0.046733307195 -4.878242572497
H -1.001860249444 0.547448158478 -4.516242652994
H -0.590900553647 -1.186558143948 -4.26127049456
Br -1.4876994e-05 -1.092027e-05 1.420950393861
