9
Coordinates from XML
N 0.495588113409 0.330897981609 -3.28808228959
C -0.567385894296 -0.378820183728 -2.550675966907
H 0.376271636692 1.350677562124 -3.228492646624
H 0.493990878981 0.076876845205 -4.284752105077
H 1.426416959489 0.105760313304 -2.912862634434
H -1.524973844975 -0.099633474833 -2.994147080161
H -0.51331187084 -0.068235857187 -1.505508809896
H -0.385479636128 -1.450492966776 -2.651676656574
Br -3.8596459e-05 -2.5768934e-05 1.195746870413
