9
Coordinates from XML
N 0.627809671898 0.087275604664 -3.003954141904
C -0.718750630762 -0.099907819076 -3.577643445601
H 0.97988326217 1.038043179132 -3.176647356517
H 1.303858675504 -0.571877124532 -3.411821074025
H 0.625620485103 -0.061843037905 -1.986271510677
H -0.650039220598 0.071049064123 -4.653579789536
H -1.386019581959 0.624551174972 -3.106822542591
H -1.034441896317 -1.122443626389 -3.36192805993
Br -4.8892804e-05 -6.795996e-06 1.328557053205
