9
Coordinates from XML
N 0.480553995444 1.542644832105 -2.213163842897
C 0.253553995444 0.855644832105 -3.481163842897
H -0.149446004556 2.323644832105 -2.014163842897
H 1.448553995444 1.812644832105 -2.024163842897
H 0.272553995444 0.878644832105 -1.410163842897
H 0.473553995444 1.557644832105 -4.287163842897
H -0.791446004556 0.541644832105 -3.515163842897
H 0.921553995444 -0.006355167895 -3.526163842897
Br -0.15160262397 -0.494599825787 1.136279975078
