9
Coordinates from XML
N 0.484377057902 1.555022335734 -2.236115774599
C 0.257377057902 0.868022335734 -3.504115774599
H -0.145622942098 2.336022335734 -2.037115774599
H 1.452377057902 1.825022335734 -2.047115774599
H 0.276377057902 0.891022335734 -1.433115774599
H 0.477377057902 1.570022335734 -4.310115774599
H -0.787622942098 0.554022335734 -3.538115774599
H 0.925377057902 0.006022335734 -3.549115774599
Br -0.153155231995 -0.49962653191 1.145601128929
