9
Coordinates from XML
N 0.485651412054 1.559148170277 -2.2437664185
C 0.258651412054 0.872148170277 -3.5117664185
H -0.144348587946 2.340148170277 -2.0447664185
H 1.453651412054 1.829148170277 -2.0547664185
H 0.277651412054 0.895148170277 -1.4407664185
H 0.478651412054 1.574148170277 -4.3177664185
H -0.786348587946 0.558148170277 -3.5457664185
H 0.926651412054 0.010148170277 -3.5567664185
Br -0.153672768003 -0.501302100618 1.148708180213
