9
Coordinates from XML
N 0.486925766206 1.56327400482 -2.251417062401
C 0.259925766206 0.87627400482 -3.519417062401
H -0.143074233794 2.34427400482 -2.052417062401
H 1.454925766206 1.83327400482 -2.062417062401
H 0.278925766206 0.89927400482 -1.448417062401
H 0.479925766206 1.57827400482 -4.325417062401
H -0.785074233794 0.56227400482 -3.553417062401
H 0.927925766206 0.01427400482 -3.564417062401
Br -0.154190304012 -0.502977669325 1.151815231496
