9
Coordinates from XML
N 0.488200120359 1.567399839363 -2.259067706302
C 0.261200120359 0.880399839363 -3.527067706302
H -0.141799879641 2.348399839363 -2.060067706302
H 1.456200120359 1.837399839363 -2.070067706302
H 0.280200120359 0.903399839363 -1.456067706302
H 0.481200120359 1.582399839363 -4.333067706302
H -0.783799879641 0.566399839363 -3.561067706302
H 0.929200120359 0.018399839363 -3.572067706302
Br -0.15470784002 -0.504653238033 1.15492228278
