9
Coordinates from XML
N 0.493297536968 1.583903177536 -2.289670281905
C 0.266297536968 0.896903177536 -3.557670281905
H -0.136702463032 2.364903177536 -2.090670281905
H 1.461297536968 1.853903177536 -2.100670281905
H 0.285297536968 0.919903177536 -1.486670281905
H 0.486297536968 1.598903177536 -4.363670281905
H -0.778702463032 0.582903177536 -3.591670281905
H 0.934297536968 0.034903177536 -3.602670281905
Br -0.156777984053 -0.511355512863 1.167350487915
