9
Coordinates from XML
N 0.498394953578 1.600406515708 -2.320272857508
C 0.271394953578 0.913406515708 -3.588272857508
H -0.131605046422 2.381406515708 -2.121272857508
H 1.466394953578 1.870406515708 -2.131272857508
H 0.290394953578 0.936406515708 -1.517272857508
H 0.491394953578 1.615406515708 -4.394272857508
H -0.773605046422 0.599406515708 -3.622272857508
H 0.939394953578 0.051406515708 -3.633272857508
Br -0.158848128086 -0.518057787694 1.17977869305
