9
Coordinates from XML
N 0.49966930773 1.604532350251 -2.327923501409
C 0.27266930773 0.917532350251 -3.595923501409
H -0.13033069227 2.385532350251 -2.128923501409
H 1.46766930773 1.874532350251 -2.138923501409
H 0.29166930773 0.940532350251 -1.524923501409
H 0.49266930773 1.619532350251 -4.401923501409
H -0.77233069227 0.603532350251 -3.629923501409
H 0.94066930773 0.055532350251 -3.640923501409
Br -0.159365664094 -0.519733356402 1.182885744334
