9
Coordinates from XML
N 0.502218016035 1.612784019337 -2.343224789211
C 0.275218016035 0.925784019337 -3.611224789211
H -0.127781983965 2.393784019337 -2.144224789211
H 1.470218016035 1.882784019337 -2.154224789211
H 0.294218016035 0.948784019337 -1.540224789211
H 0.495218016035 1.627784019337 -4.417224789211
H -0.769781983965 0.611784019337 -3.645224789211
H 0.943218016035 0.063784019337 -3.656224789211
Br -0.160400736111 -0.523084493817 1.189099846901
