9
Coordinates from XML
N 0.503492370188 1.61690985388 -2.350875433112
C 0.276492370188 0.92990985388 -3.618875433112
H -0.126507629812 2.39790985388 -2.151875433112
H 1.471492370188 1.88690985388 -2.161875433112
H 0.295492370188 0.95290985388 -1.547875433112
H 0.496492370188 1.63190985388 -4.424875433112
H -0.768507629812 0.61590985388 -3.652875433112
H 0.944492370188 0.06790985388 -3.663875433112
Br -0.160918272119 -0.524760062525 1.192206898185
