9
Coordinates from XML
N 0.507315432645 1.62928735751 -2.373827364814
C 0.280315432645 0.94228735751 -3.641827364814
H -0.122684567355 2.41028735751 -2.174827364814
H 1.475315432645 1.89928735751 -2.184827364814
H 0.299315432645 0.96528735751 -1.570827364814
H 0.500315432645 1.64428735751 -4.447827364814
H -0.764684567355 0.62828735751 -3.675827364814
H 0.948315432645 0.08028735751 -3.686827364814
Br -0.162470880144 -0.529786768648 1.201528052036
