9
Coordinates from XML
N 0.50986414095 1.637539026596 -2.389128652616
C 0.28286414095 0.950539026596 -3.657128652616
H -0.12013585905 2.418539026596 -2.190128652616
H 1.47786414095 1.907539026596 -2.200128652616
H 0.30186414095 0.973539026596 -1.586128652616
H 0.50286414095 1.652539026596 -4.463128652616
H -0.76213585905 0.636539026596 -3.691128652616
H 0.95086414095 0.088539026596 -3.702128652616
Br -0.163505952161 -0.533137906063 1.207742154604
