9
Coordinates from XML
N 0.511138495102 1.641664861139 -2.396779296516
C 0.284138495102 0.954664861139 -3.664779296516
H -0.118861504898 2.422664861139 -2.197779296516
H 1.479138495102 1.911664861139 -2.207779296516
H 0.303138495102 0.977664861139 -1.593779296516
H 0.504138495102 1.656664861139 -4.470779296516
H -0.760861504898 0.640664861139 -3.698779296516
H 0.952138495102 0.092664861139 -3.709779296516
Br -0.164023488169 -0.53481347477 1.210849205887
