9
Coordinates from XML
N 0.512412849255 1.645790695682 -2.404429940417
C 0.285412849255 0.958790695682 -3.672429940417
H -0.117587150745 2.426790695682 -2.205429940417
H 1.480412849255 1.915790695682 -2.215429940417
H 0.304412849255 0.981790695682 -1.601429940417
H 0.505412849255 1.660790695682 -4.478429940417
H -0.759587150745 0.644790695682 -3.706429940417
H 0.953412849255 0.096790695682 -3.717429940417
Br -0.164541024177 -0.536489043478 1.213956257171
