9
Coordinates from XML
N 0.518784620017 1.666419868397 -2.442683159921
C 0.291784620017 0.979419868397 -3.710683159921
H -0.111215379983 2.447419868397 -2.243683159921
H 1.486784620017 1.936419868397 -2.253683159921
H 0.310784620017 1.002419868397 -1.639683159921
H 0.511784620017 1.681419868397 -4.516683159921
H -0.753215379983 0.665419868397 -3.744683159921
H 0.959784620017 0.117419868397 -3.755683159921
Br -0.167128704219 -0.544866887016 1.22949151359
