9
Coordinates from XML
N 0.520058974169 1.670545702941 -2.450333803822
C 0.293058974169 0.983545702941 -3.718333803822
H -0.109941025831 2.451545702941 -2.251333803822
H 1.488058974169 1.940545702941 -2.261333803822
H 0.312058974169 1.006545702941 -1.647333803822
H 0.513058974169 1.685545702941 -4.524333803822
H -0.751941025831 0.669545702941 -3.752333803822
H 0.961058974169 0.121545702941 -3.763333803822
Br -0.167646240227 -0.546542455724 1.232598564873
