9
Coordinates from XML
N 0.473473330706 1.519720552295 -2.170654745725
C 0.246473330706 0.832720552295 -3.438654745725
H -0.156526669294 2.300720552295 -1.971654745725
H 1.441473330706 1.789720552295 -1.981654745725
H 0.265473330706 0.855720552295 -1.367654745725
H 0.466473330706 1.534720552295 -4.244654745725
H -0.798526669294 0.518720552295 -3.472654745725
H 0.914473330706 -0.029279447705 -3.483654745725
Br -0.148727050522 -0.48528990182 1.119016337317
