9
Coordinates from XML
N 0.475817921679 1.527311373424 -2.184730605716
C 0.248817921679 0.840311373424 -3.452730605716
H -0.154182078321 2.308311373424 -1.985730605716
H 1.443817921679 1.797311373424 -1.995730605716
H 0.267817921679 0.863311373424 -1.381730605716
H 0.468817921679 1.542311373424 -4.258730605716
H -0.796182078321 0.526311373424 -3.486730605716
H 0.916817921679 -0.021688626576 -3.497730605716
Br -0.14967922716 -0.488372658101 1.124732773662
