9
Coordinates from XML
N 0.485196285571 1.55767465794 -2.241034045678
C 0.258196285571 0.87067465794 -3.509034045678
H -0.144803714429 2.33867465794 -2.042034045678
H 1.453196285571 1.82767465794 -2.052034045678
H 0.277196285571 0.89367465794 -1.438034045678
H 0.478196285571 1.57267465794 -4.315034045678
H -0.786803714429 0.55667465794 -3.543034045678
H 0.926196285571 0.00867465794 -3.554034045678
Br -0.153487933715 -0.500703683222 1.14759851904
