9
Coordinates from XML
N 0.486368581057 1.561470068505 -2.248071975674
C 0.259368581057 0.874470068505 -3.516071975674
H -0.143631418943 2.342470068505 -2.049071975674
H 1.454368581057 1.831470068505 -2.059071975674
H 0.278368581057 0.897470068505 -1.445071975674
H 0.479368581057 1.576470068505 -4.322071975674
H -0.785631418943 0.560470068505 -3.550071975674
H 0.927368581057 0.012470068505 -3.561071975674
Br -0.153964022034 -0.502245061362 1.150456737212
