9
Coordinates from XML
N 0.488713172031 1.569060889634 -2.262147835664
C 0.261713172031 0.882060889634 -3.530147835664
H -0.141286827969 2.350060889634 -2.063147835664
H 1.456713172031 1.839060889634 -2.073147835664
H 0.280713172031 0.905060889634 -1.459147835664
H 0.481713172031 1.584060889634 -4.336147835664
H -0.783286827969 0.568060889634 -3.564147835664
H 0.929713172031 0.020060889634 -3.575147835664
Br -0.154916198673 -0.505327817642 1.156173173557
