9
Coordinates from XML
N 0.491057763004 1.576651710763 -2.276223695655
C 0.264057763004 0.889651710763 -3.544223695655
H -0.138942236996 2.357651710763 -2.077223695655
H 1.459057763004 1.846651710763 -2.087223695655
H 0.283057763004 0.912651710763 -1.473223695655
H 0.484057763004 1.591651710763 -4.350223695655
H -0.780942236996 0.575651710763 -3.578223695655
H 0.932057763004 0.027651710763 -3.589223695655
Br -0.155868375311 -0.508410573923 1.161889609901
