9
Coordinates from XML
N 0.498091535923 1.59942417415 -2.318451275627
C 0.271091535923 0.91242417415 -3.586451275627
H -0.131908464077 2.38042417415 -2.119451275627
H 1.466091535923 1.86942417415 -2.129451275627
H 0.290091535923 0.93542417415 -1.515451275627
H 0.491091535923 1.61442417415 -4.392451275627
H -0.773908464077 0.59842417415 -3.620451275627
H 0.939091535923 0.05042417415 -3.631451275627
Br -0.158724905227 -0.517658842764 1.179038918935
