9
Coordinates from XML
N 0.513331377248 1.648764511489 -2.409944365567
C 0.286331377248 0.961764511489 -3.677944365567
H -0.116668622752 2.429764511489 -2.210944365567
H 1.481331377248 1.918764511489 -2.220944365567
H 0.305331377248 0.984764511489 -1.606944365567
H 0.506331377248 1.663764511489 -4.483944365567
H -0.758668622752 0.647764511489 -3.711944365567
H 0.954331377248 0.099764511489 -3.722944365567
Br -0.164914053378 -0.537696758586 1.216195755174
