9
Coordinates from XML
N 0.518020559194 1.663946153747 -2.438096085548
C 0.291020559194 0.976946153747 -3.706096085548
H -0.111979440806 2.444946153747 -2.239096085548
H 1.486020559194 1.933946153747 -2.249096085548
H 0.310020559194 0.999946153747 -1.635096085548
H 0.511020559194 1.678946153747 -4.512096085548
H -0.753979440806 0.662946153747 -3.740096085548
H 0.959020559194 0.114946153747 -3.751096085548
Br -0.166818406655 -0.543862271146 1.227628627863
