9
Coordinates from XML
N 0.51919285468 1.667741564312 -2.445134015543
C 0.29219285468 0.980741564312 -3.713134015543
H -0.11080714532 2.448741564312 -2.246134015543
H 1.48719285468 1.937741564312 -2.256134015543
H 0.31119285468 1.003741564312 -1.642134015543
H 0.51219285468 1.682741564312 -4.519134015543
H -0.75280714532 0.666741564312 -3.747134015543
H 0.96019285468 0.118741564312 -3.758134015543
Br -0.167294494974 -0.545403649286 1.230486846036
