9
Coordinates from XML
N 0.521537445653 1.675332385441 -2.459209875534
C 0.294537445653 0.988332385441 -3.727209875534
H -0.108462554347 2.456332385441 -2.260209875534
H 1.489537445653 1.945332385441 -2.270209875534
H 0.313537445653 1.011332385441 -1.656209875534
H 0.514537445653 1.690332385441 -4.533209875534
H -0.750462554347 0.674332385441 -3.761209875534
H 0.962537445653 0.126332385441 -3.772209875534
Br -0.168246671613 -0.548486405567 1.23620328238
