9
Coordinates from XML
N 0.67402151501 0.055214656642 -2.010118108508
C -0.711413121057 -0.058352680329 -2.643884564789
H 0.801479727949 -0.648514849755 -1.278767917201
H 0.809422586589 0.976509262113 -1.586863897587
H 1.408984231512 -0.080858071963 -2.70863271667
H -1.456581156735 0.092245305869 -1.86962033227
H -0.810435409818 -1.047246622824 -3.078512209271
H -0.801851311915 0.704003274578 -3.410638613023
Br -0.010796617308 -0.000874965709 0.936620205085
