9
Coordinates from XML
N 0.67402151501 0.055214656642 -2.408378192193
C -0.711413121057 -0.058352680329 -3.042144648474
H 0.801479727949 -0.648514849755 -1.677028000887
H 0.809422586589 0.976509262113 -1.985123981272
H 1.408984231512 -0.080858071963 -3.106892800355
H -1.456581156735 0.092245305869 -2.267880415955
H -0.810435409818 -1.047246622824 -3.476772292956
H -0.801851311915 0.704003274578 -3.808898696708
Br -0.010796617308 -0.000874965709 1.0983601214
