9
Coordinates from XML
N 0.67402151501 0.055214656642 -2.465272489863
C -0.711413121057 -0.058352680329 -3.099038946144
H 0.801479727949 -0.648514849755 -1.733922298556
H 0.809422586589 0.976509262113 -2.042018278941
H 1.408984231512 -0.080858071963 -3.163787098025
H -1.456581156735 0.092245305869 -2.324774713624
H -0.810435409818 -1.047246622824 -3.533666590625
H -0.801851311915 0.704003274578 -3.865792994377
Br -0.010796617308 -0.000874965709 1.121465823731
