9
Coordinates from XML
N 0.67402151501 0.055214656642 -2.593284659619
C -0.711413121057 -0.058352680329 -3.2270511159
H 0.801479727949 -0.648514849755 -1.861934468312
H 0.809422586589 0.976509262113 -2.170030448697
H 1.408984231512 -0.080858071963 -3.291799267781
H -1.456581156735 0.092245305869 -2.45278688338
H -0.810435409818 -1.047246622824 -3.661678760381
H -0.801851311915 0.704003274578 -3.993805164133
Br -0.010796617308 -0.000874965709 1.173453653975
