9
Coordinates from XML
N 0.67402151501 0.055214656642 -2.778191127044
C -0.711413121057 -0.058352680329 -3.411957583325
H 0.801479727949 -0.648514849755 -2.046840935737
H 0.809422586589 0.976509262113 -2.354936916122
H 1.408984231512 -0.080858071963 -3.476705735206
H -1.456581156735 0.092245305869 -2.637693350806
H -0.810435409818 -1.047246622824 -3.846585227806
H -0.801851311915 0.704003274578 -4.178711631559
Br -0.010796617308 -0.000874965709 1.248547186549
