9
Coordinates from XML
N 0.67402151501 0.055214656642 -3.034215466556
C -0.711413121057 -0.058352680329 -3.667981922837
H 0.801479727949 -0.648514849755 -2.302865275249
H 0.809422586589 0.976509262113 -2.610961255634
H 1.408984231512 -0.080858071963 -3.732730074718
H -1.456581156735 0.092245305869 -2.893717690317
H -0.810435409818 -1.047246622824 -4.102609567318
H -0.801851311915 0.704003274578 -4.43473597107
Br -0.010796617308 -0.000874965709 1.352522847038
