9
Coordinates from XML
N 0.67402151501 0.055214656642 -3.716947038588
C -0.711413121057 -0.058352680329 -4.350713494868
H 0.801479727949 -0.648514849755 -2.985596847281
H 0.809422586589 0.976509262113 -3.293692827666
H 1.408984231512 -0.080858071963 -4.415461646749
H -1.456581156735 0.092245305869 -3.576449262349
H -0.810435409818 -1.047246622824 -4.78534113935
H -0.801851311915 0.704003274578 -5.117467543102
Br -0.010796617308 -0.000874965709 1.629791275006
