9
Coordinates from XML
N 0.130874784661 0.727094384429 -2.151718025289
C -0.13819672566 -0.767435304989 -2.318954748908
H -0.722202144574 1.271981703814 -2.299066179413
H 0.83085852254 1.051245520606 -2.823439794282
H 0.477625369411 0.934252291495 -1.211793414776
H -0.502692837203 -0.940086795777 -3.326314815617
H -0.88335767626 -1.066150984218 -1.589487866036
H 0.790381958994 -1.304069679989 -2.154508366141
Br -0.002088593511 -0.011646108079 0.905589598692
