9
Coordinates from XML
N 0.130874784661 0.727094384429 -2.692213853148
C -0.13819672566 -0.767435304989 -2.859450576766
H -0.722202144574 1.271981703814 -2.839562007271
H 0.83085852254 1.051245520606 -3.36393562214
H 0.477625369411 0.934252291495 -1.752289242634
H -0.502692837203 -0.940086795777 -3.866810643476
H -0.88335767626 -1.066150984218 -2.129983693895
H 0.790381958994 -1.304069679989 -2.695004194
Br -0.002088593511 -0.011646108079 1.125093770834
