9
Coordinates from XML
N 0.130874784661 0.727094384429 -2.94823819266
C -0.13819672566 -0.767435304989 -3.115474916278
H -0.722202144574 1.271981703814 -3.095586346783
H 0.83085852254 1.051245520606 -3.619959961652
H 0.477625369411 0.934252291495 -2.008313582146
H -0.502692837203 -0.940086795777 -4.122834982988
H -0.88335767626 -1.066150984218 -2.386008033407
H 0.790381958994 -1.304069679989 -2.951028533512
Br -0.002088593511 -0.011646108079 1.229069431322
