9
Coordinates from XML
N 0.130874784661 0.727094384429 -3.076250362416
C -0.13819672566 -0.767435304989 -3.243487086034
H -0.722202144574 1.271981703814 -3.223598516539
H 0.83085852254 1.051245520606 -3.747972131408
H 0.477625369411 0.934252291495 -2.136325751902
H -0.502692837203 -0.940086795777 -4.250847152744
H -0.88335767626 -1.066150984218 -2.514020203163
H 0.790381958994 -1.304069679989 -3.079040703267
Br -0.002088593511 -0.011646108079 1.281057261566
