9
Coordinates from XML
N 0.130874784661 0.727094384429 -3.332274701927
C -0.13819672566 -0.767435304989 -3.499511425546
H -0.722202144574 1.271981703814 -3.479622856051
H 0.83085852254 1.051245520606 -4.00399647092
H 0.477625369411 0.934252291495 -2.392350091414
H -0.502692837203 -0.940086795777 -4.506871492255
H -0.88335767626 -1.066150984218 -2.770044542674
H 0.790381958994 -1.304069679989 -3.335065042779
Br -0.002088593511 -0.011646108079 1.385032922054
