9
Coordinates from XML
N 0.130874784661 0.727094384429 -3.460286871683
C -0.13819672566 -0.767435304989 -3.627523595302
H -0.722202144574 1.271981703814 -3.607635025807
H 0.83085852254 1.051245520606 -4.132008640676
H 0.477625369411 0.934252291495 -2.52036226117
H -0.502692837203 -0.940086795777 -4.634883662011
H -0.88335767626 -1.066150984218 -2.89805671243
H 0.790381958994 -1.304069679989 -3.463077212535
Br -0.002088593511 -0.011646108079 1.437020752298
