9
Coordinates from XML
N 0.441352434375 1.415726302827 -1.977815463852
C 0.214352434375 0.728726302827 -3.245815463852
H -0.188647565625 2.196726302827 -1.778815463853
H 1.409352434375 1.685726302827 -1.788815463853
H 0.233352434375 0.751726302827 -1.174815463853
H 0.434352434375 1.430726302827 -4.051815463852
H -0.830647565625 0.414726302827 -3.279815463852
H 0.882352434375 -0.133273697173 -3.290815463853
Br -0.135682230573 -0.44305614078 1.040701159397
