9
Coordinates from XML
N 0.453142377554 1.453897289076 -2.048596931234
C 0.226142377554 0.766897289076 -3.316596931234
H -0.176857622446 2.234897289076 -1.849596931234
H 1.421142377554 1.723897289076 -1.859596931234
H 0.245142377554 0.789897289076 -1.245596931234
H 0.446142377554 1.468897289076 -4.122596931234
H -0.818857622446 0.452897289076 -3.350596931234
H 0.894142377554 -0.095102710924 -3.361596931234
Br -0.140470318813 -0.458558000933 1.069446667872
