9
Coordinates from XML
N 0.459037349143 1.4729827822 -2.083987664925
C 0.232037349143 0.7859827822 -3.351987664925
H -0.170962650857 2.2539827822 -1.884987664925
H 1.427037349143 1.7429827822 -1.894987664925
H 0.251037349143 0.8089827822 -1.280987664925
H 0.452037349143 1.4879827822 -4.157987664925
H -0.812962650857 0.4719827822 -3.385987664925
H 0.900037349143 -0.0760172178 -3.396987664925
Br -0.142864362932 -0.466308931009 1.08381942211
