9
Coordinates from XML
N 0.464932320732 1.492068275325 -2.119378398616
C 0.237932320732 0.805068275325 -3.387378398616
H -0.165067679268 2.273068275325 -1.920378398616
H 1.432932320732 1.762068275325 -1.930378398616
H 0.256932320732 0.828068275325 -1.316378398616
H 0.457932320732 1.507068275325 -4.193378398616
H -0.807067679268 0.491068275325 -3.421378398616
H 0.905932320732 -0.056931724675 -3.432378398616
Br -0.145258407052 -0.474059861085 1.098192176348
