9
Coordinates from XML
N 0.494407178679 1.587495740947 -2.29633206707
C 0.267407178679 0.900495740947 -3.56433206707
H -0.135592821321 2.368495740947 -2.09733206707
H 1.462407178679 1.857495740947 -2.10733206707
H 0.286407178679 0.923495740947 -1.49333206707
H 0.487407178679 1.602495740947 -4.37033206707
H -0.777592821321 0.586495740947 -3.59833206707
H 0.935407178679 0.038495740947 -3.60933206707
Br -0.157228627652 -0.512814511466 1.170055947536
