9
Coordinates from XML
N 0.517987065037 1.663837713445 -2.437895001834
C 0.290987065037 0.976837713445 -3.705895001834
H -0.112012934963 2.444837713445 -2.238895001834
H 1.485987065037 1.933837713445 -2.248895001834
H 0.309987065037 0.999837713445 -1.634895001834
H 0.510987065037 1.678837713445 -4.511895001834
H -0.754012934963 0.662837713445 -3.739895001834
H 0.958987065037 0.114837713445 -3.750895001834
Br -0.166804804132 -0.543818231771 1.227546964487
