9
Coordinates from XML
N -0.408857803492 -0.134249201535 -3.265803564522
C 0.431558533633 0.141624949594 -2.020179052488
H 0.086670308657 -0.752306525126 -3.912959613222
H -0.624230684577 0.733529933774 -3.76262870653
H -1.294375495229 -0.582986145936 -3.018614947704
H 1.357403330621 0.615992923357 -2.328767279678
H 0.635197340887 -0.802780665444 -1.526978177602
H -0.130991568655 0.798450753135 -1.364896910928
Br 0.006546745231 0.002159502727 1.089896468416
