9
Coordinates from XML
N -0.408857803492 -0.134249201535 -3.308474287774
C 0.431558533633 0.141624949594 -2.06284977574
H 0.086670308657 -0.752306525126 -3.955630336474
H -0.624230684577 0.733529933774 -3.805299429782
H -1.294375495229 -0.582986145936 -3.061285670956
H 1.357403330621 0.615992923357 -2.37143800293
H 0.635197340887 -0.802780665444 -1.569648900854
H -0.130991568655 0.798450753135 -1.40756763418
Br 0.006546745231 0.002159502727 1.107225745164
