14
Coordinates from XML
C -1.39605 0.0789428 -0.125999
C -2.84205 -0.0280572 0.296001
O -3.56405 -0.735057 -0.535999
O -3.34605 0.676943 1.148
H -1.31105 0.635943 -1.062
H -0.809048 0.589943 0.640001
H -0.969048 -0.914057 -0.280999
C 4.18481 -0.0754361 -0.360525
C 2.68881 0.0095639 -0.172525
O 2.06481 0.702564 -0.950525
O 2.20081 -0.634436 0.732475
H 4.56981 0.854564 -0.786525
H 4.68081 -0.249436 0.596475
H 4.42781 -0.897436 -1.03653
