14
Coordinates from XML
C -1.396047583674 0.078942848056 -0.125998686557
C -2.842047583674 -0.028057151944 0.296001313443
O -3.564047583674 -0.735057151944 -0.535998686557
O -3.346047583674 0.676942848056 1.148001313443
H -1.311047583674 0.635942848056 -1.061998686557
H -0.809047583674 0.589942848056 0.640001313443
H -0.969047583674 -0.914057151944 -0.280998686557
C 4.184805047905 -0.075436099312 -0.360525002346
C 2.688805047905 0.009563900688 -0.172525002346
O 2.064805047905 0.702563900688 -0.950525002346
O 2.200805047905 -0.634436099312 0.732474997654
H 4.569805047905 0.854563900688 -0.786525002346
H 4.680805047905 -0.249436099312 0.596474997654
H 4.427805047905 -0.897436099312 -1.036525002346
