14
Coordinates from XML
C 1.06086 -0.536393 -2.06105
C -0.0819797 0.0378541 -2.97012
O -0.191944 -0.473621 -4.15042
O -0.793618 0.972549 -2.42894
H 1.6121 -1.3328 -2.5758
H 1.74892 0.277141 -1.7868
H 0.623771 -0.924421 -1.1291
C 0.565397 0.211782 1.5762
C -0.0394364 -0.0139188 3.0064
O 0.710059 0.308467 4.00697
O -1.23559 -0.505751 3.02289
H 1.57184 0.643615 1.63691
H 0.602988 -0.74979 1.04286
H -0.0953322 0.879031 1.00317
