14
Coordinates from XML
C 0.86703 1.06099 -1.95068
C -0.0710345 -0.0833215 -2.47302
O -0.89159 -0.592587 -1.61619
O 0.0862579 -0.393451 -3.71883
H 0.66963 1.28201 -0.894621
H 1.91636 0.756041 -2.07875
H 0.711542 1.96452 -2.55863
C -1.13069 -0.847161 2.78746
C 0.0923157 0.0632891 2.41653
O 1.18165 -0.135631 3.08032
O -0.131364 0.923327 1.47672
H -0.866464 -1.5604 3.57775
H -1.96632 -0.213516 3.12018
H -1.46638 -1.3883 1.89045
