14
Coordinates from XML
C 0.834298 1.18015 -2.65852
C -0.0663271 -0.0927332 -2.4828
O -0.660052 -0.529882 -3.54262
O -0.115161 -0.566271 -1.28017
H 0.841714 1.51741 -3.70221
H 0.456515 1.98374 -2.0089
H 1.85884 0.948568 -2.33167
C 0.142627 1.41926 2.77738
C -0.00623593 -0.111026 2.46382
O 0.790581 -0.597124 1.57185
O -0.923556 -0.721335 3.14131
H 0.945955 1.86815 2.18051
H -0.80977 1.92711 2.56404
H 0.352261 1.55208 3.84908
