14
Coordinates from XML
C 0.206812 -1.41851 -2.35062
C -0.0193282 0.109897 -2.6246
O -0.597092 0.416977 -3.73758
O 0.405609 0.901044 -1.69376
H -0.189907 -2.02944 -3.17066
H 1.28355 -1.60945 -2.22957
H -0.283571 -1.69492 -1.40549
C 1.3612 -0.511574 2.54938
C -0.107097 0.03978 2.59789
O -0.66195 0.303373 1.46234
O -0.602635 0.171938 3.7853
H 1.71097 -0.612425 1.51469
H 2.02308 0.17131 3.10261
H 1.39999 -1.48755 3.05545
