14
Coordinates from XML
C -0.770500562483 0.229482767764 -4.072754312052
C 0.055324198086 -0.017474375558 -2.761545565801
O -0.585219469391 0.096813199805 -1.646439228614
O 1.301580283156 -0.309666437373 -2.947087111836
H -1.818570055655 0.45645248244 -3.842272341416
H -0.321705995052 1.064080360211 -4.631785402359
H -0.711846311306 -0.663197872301 -4.71292990844
C -0.255942706407 1.42545789664 2.719745972091
C 0.022514303988 -0.110821351781 2.876431983856
O 0.699406788929 -0.471246475165 3.915051393132
O -0.461779922596 -0.853206362275 1.934476733242
H 0.168295577165 1.991038931467 3.558332177845
H 0.179763280782 1.77791096135 1.77295000943
H -1.341538823289 1.594378415293 2.664151278749
