14
Coordinates from XML
C 1.3912 -0.159495 -3.16522
C -0.11065 0.0135521 -2.74481
O -0.925781 0.406125 -3.66582
O -0.36662 -0.258065 -1.5064
H 1.53277 0.0719337 -4.22799
H 2.01803 0.504559 -2.55153
H 1.70937 -1.19244 -2.96045
C 0.070795 -1.45325 2.78155
C -0.00158068 0.114143 2.76437
O 0.79829 0.719519 1.95163
O -0.864079 0.630687 3.57815
H 0.809072 -1.82223 2.05914
H 0.336654 -1.79257 3.79381
H -0.921841 -1.86564 2.54756
