14
Coordinates from XML
C -0.640761 1.30636 -2.91686
C 0.0492702 -0.102862 -2.90349
O 0.227513 -0.646755 -1.74624
O 0.368008 -0.566732 -4.06805
H -0.896576 1.63025 -1.90062
H 0.0371167 2.03728 -3.38241
H -1.54893 1.26064 -3.53596
C -0.58266 1.02524 2.05759
C 0.0482961 -0.0829213 2.97198
O 0.673373 -1.03948 2.37107
O -0.132518 0.0872352 4.24136
H -0.378381 0.826483 0.998413
H -1.66898 1.06061 2.22833
H -0.174021 2.00651 2.3409
