14
Coordinates from XML
C -0.985965307117 0.848551323613 -2.851981760832
C 0.080699709199 -0.061605332316 -2.14764991668
O 1.170351385187 0.516320524606 -1.766230315741
O -0.25467134067 -1.305088003477 -2.028346935586
H -0.643487264151 1.889204274771 -2.905245989132
H -1.176382369869 0.465556037957 -3.865658937444
H -1.934225707856 0.793470968163 -2.297083385115
C -1.12735693838 0.84164139366 1.82857984259
C 0.089361021553 -0.067263266079 2.223209374598
O 0.642792562496 -0.736749056491 1.268053738594
O 0.404294962897 -0.045140395281 3.477515273111
H -1.328489267361 0.786291460084 0.751746975439
H -2.016584893323 0.521223015354 2.391688333021
H -0.913294232304 1.881300726427 2.117421443122
