14
Coordinates from XML
C 0.540322215189 1.021650386661 -2.456104504784
C -0.047205927525 -0.080718872397 -3.405754672084
O -1.118557992458 -0.677848343961 -3.002689999587
O 0.617217652946 -0.271454231671 -4.498968934845
H -0.079300564512 1.140842685254 -1.558915751222
H 1.565027005446 0.743162961213 -2.168162997363
H 0.600407665305 1.97585982436 -3.000179801254
C 0.846472083359 0.099988326623 2.160816116472
C -0.062089014811 -0.011132632196 3.435340186646
O 0.361724136061 -0.78205227054 4.38026627234
O -1.148604186596 0.689455606932 3.395128291091
H 1.754615038121 -0.505454399724 2.269454652524
H 0.27778656944 -0.23418977903 1.280244004169
H 1.115490735974 1.153975847101 1.996855414591
