14
Coordinates from XML
C 0.540322 1.02165 -2.4561
C -0.0472059 -0.0807189 -3.40575
O -1.11856 -0.677848 -3.00269
O 0.617218 -0.271454 -4.49897
H -0.0793006 1.14084 -1.55892
H 1.56503 0.743163 -2.16816
H 0.600408 1.97586 -3.00018
C 0.846472 0.0999883 2.16082
C -0.062089 -0.0111326 3.43534
O 0.361724 -0.782052 4.38027
O -1.1486 0.689456 3.39513
H 1.75462 -0.505454 2.26945
H 0.277787 -0.23419 1.28024
H 1.11549 1.15398 1.99686
