14
Coordinates from XML
C -0.919521 0.925429 -3.4144
C 0.0760297 -0.068028 -2.71858
O 1.238 0.40209 -2.40934
O -0.384167 -1.26236 -2.53219
H -0.470795 1.91999 -3.52656
H -1.19756 0.527507 -4.40174
H -1.84088 0.994569 -2.81736
C -1.44021 0.207034 2.75945
C 0.112833 -0.0165325 2.77689
O 0.678792 -0.0422326 3.937
O 0.659236 -0.14976 1.61214
H -1.83762 0.296201 3.77789
H -1.66855 1.11914 2.18813
H -1.92286 -0.634387 2.2406
