14
Coordinates from XML
C 1.26316 -0.441059 -2.59832
C -0.102015 0.0300931 -3.21195
O -1.1292 -0.714724 -2.97331
O -0.0441721 1.12476 -3.89848
H 1.13781 -1.36364 -2.01847
H 1.98765 -0.605379 -3.40986
H 1.66647 0.354782 -1.95479
C -0.365752 -0.435594 1.83082
C 0.0283751 0.0283792 3.27706
O -0.0178055 -0.869659 4.20346
O 0.357665 1.27488 3.38074
H -0.61763 -1.503 1.81364
H -1.2248 0.156643 1.48184
H 0.470523 -0.236246 1.14449
