14
Coordinates from XML
C -1.2702 0.708036 -2.57394
C 0.0996698 -0.0560409 -2.61751
O 0.653191 -0.312884 -1.47976
O 0.527226 -0.344891 -3.80356
H -1.57883 0.906378 -1.54026
H -1.17377 1.65627 -3.12353
H -2.0373 0.108618 -3.08619
C 1.07122 -0.949307 2.88103
C -0.0847684 0.0754046 2.60553
O -0.713139 0.527447 3.63879
O -0.282405 0.354443 1.35812
H 1.193 -1.1272 3.95649
H 0.845413 -1.89652 2.36889
H 2.00916 -0.562209 2.4561
