14
Coordinates from XML
C 0.460283 -1.3426 -2.19989
C -0.0330113 0.105182 -2.55037
O 0.478272 0.649488 -3.60353
O -0.906251 0.5981 -1.7334
H 1.18516 -1.70263 -2.94017
H 0.919052 -1.33686 -1.1999
H -0.40429 -2.02163 -2.16018
C -1.21025 0.456586 1.85388
C 0.0960617 -0.0397264 2.56764
O 0.715076 -1.02872 2.01489
O 0.40925 0.604518 3.64459
H -1.40645 -0.121971 0.94291
H -2.05979 0.36223 2.5466
H -1.10621 1.52327 1.60588
