14
Coordinates from XML
C 1.393433425371 0.091940010804 -1.961170512847
C -0.108261862492 -0.012890127417 -2.404075295596
O -0.44412754832 -1.074722992067 -3.057164257144
O -0.850376729832 0.989913305938 -2.062597780099
H 1.958725754692 -0.79611058956 -2.269224998757
H 1.840662176453 0.992791138162 -2.407196471227
H 1.442939343049 0.207893353473 -0.86835404748
C 1.366263490889 0.027265138658 2.869831878797
C -0.10545961217 -0.006191870724 2.326550663866
O -0.307568782984 -0.690363341981 1.250501750455
O -0.961756024688 0.665575315773 3.02543648925
H 2.033376130326 -0.573549724578 2.239697703321
H 1.718069537069 1.069313662706 2.899035378671
H 1.381561757742 -0.353091822449 3.901935742614
