14
Coordinates from XML
C 1.39343 0.09194 -1.96117
C -0.108262 -0.0128901 -2.40408
O -0.444128 -1.07472 -3.05716
O -0.850377 0.989913 -2.0626
H 1.95873 -0.796111 -2.26922
H 1.84066 0.992791 -2.4072
H 1.44294 0.207893 -0.868354
C 1.36626 0.0272651 2.86983
C -0.10546 -0.00619187 2.32655
O -0.307569 -0.690363 1.2505
O -0.961756 0.665575 3.02544
H 2.03338 -0.57355 2.2397
H 1.71807 1.06931 2.89904
H 1.38156 -0.353092 3.90194
