14
Coordinates from XML
C 0.550493 -0.858152 -1.85189
C -0.040179 0.0640705 -2.97566
O 0.411256 -0.121906 -4.17084
O -0.922964 0.919464 -2.57323
H 1.27877 -1.5667 -2.26501
H 1.03143 -0.232431 -1.0853
H -0.268909 -1.40492 -1.36223
C -0.683507 -1.26993 3.08296
C 0.0550505 0.0997198 2.88086
O 0.484395 0.686342 3.9478
O 0.150444 0.493523 1.65254
H -0.71434 -1.54906 4.14325
H -1.70715 -1.19138 2.68739
H -0.167282 -2.05021 2.50433
