14
Coordinates from XML
C 1.32016 0.484704 -2.407
C -0.101208 -0.0434933 -2.81068
O -0.149657 -1.21746 -3.34572
O -1.07727 0.767564 -2.56077
H 2.09571 -0.25748 -2.63233
H 1.52749 1.41852 -2.95059
H 1.32837 0.721779 -1.33282
C -0.934413 -0.853604 3.49773
C 0.0744509 0.0701204 2.72885
O 0.554448 1.07246 3.38592
O 0.313678 -0.279467 1.50676
H -1.0783 -0.508625 4.52893
H -1.8983 -0.85785 2.96726
H -0.555075 -1.8862 3.49692
