14
Coordinates from XML
C -0.443273490877 -1.319903744625 -3.352316057341
C 0.034402951871 0.105528673708 -2.902637973755
O 0.239869559749 0.967678789142 -3.84141411031
O 0.172427226669 0.258415147309 -1.625715453935
H -0.553396264074 -1.373654049039 -4.442302631701
H 0.286368392086 -2.070253112824 -3.013075709982
H -1.40247211563 -1.552023914554 -2.866309817131
C 1.445699741988 -0.062437298908 2.778206220177
C -0.114103751961 0.003817621275 2.935896067239
O -0.80627815994 -0.041699512862 1.847023823814
O -0.536943035459 0.09980570819 4.154481034884
H 1.732107162015 -0.158234280874 1.723748738491
H 1.892015602007 0.847969063589 3.205345393312
H 1.83308928133 -0.917661331677 3.351499373042
