14
Coordinates from XML
C 0.382207 -0.687623 -1.98603
C -0.0244517 0.056336 -3.30641
O 0.845573 0.872738 -3.79973
O -1.20149 -0.233905 -3.7573
H 1.39438 -0.40664 -1.67037
H -0.338953 -0.438888 -1.19322
H 0.328117 -1.77413 -2.14948
C -1.4271 0.140199 3.45646
C 0.113116 -0.00960232 3.19656
O 0.896785 0.322899 4.16719
O 0.429113 -0.453206 2.02339
H -1.62233 0.504993 4.47229
H -1.85245 0.838681 2.72048
H -1.91747 -0.833036 3.3065
