14
Coordinates from XML
C 0.902768 -1.13855 -2.93483
C -0.0714489 0.0892851 -2.86016
O -0.441522 0.601146 -3.98615
O -0.39718 0.456918 -1.66362
H 1.12363 -1.40444 -3.97579
H 1.8358 -0.893409 -2.40582
H 0.447664 -1.99579 -2.41698
C -0.902489 0.618847 3.81886
C 0.0729263 -0.0430914 2.78318
O 0.734053 0.760191 2.01867
O 0.104262 -1.33585 2.81043
H -0.867 1.71302 3.75099
H -1.92699 0.265755 3.62856
H -0.627877 0.296722 4.83423
