14
Coordinates from XML
C 0.902767738197 -1.138546145389 -2.93482539294
C -0.071448939527 0.089285098508 -2.860159179643
O -0.441521731487 0.601146087919 -3.986154046076
O -0.397179638017 0.456917997083 -1.663621817162
H 1.1236253578 -1.404442185983 -3.975790358798
H 1.835800531497 -0.893409113782 -2.405823401103
H 0.447664070048 -1.995786845502 -2.41698094347
C -0.902489148997 0.618847137178 3.818862421039
C 0.072926330644 -0.043091440406 2.783176800962
O 0.734053124532 0.760191458173 2.018671777882
O 0.104261786567 -1.335852542618 2.810433317207
H -0.867000378807 1.713022797361 3.750987355377
H -1.926986974848 0.265754990948 3.628558437625
H -0.627877387175 0.296721751776 4.834228097476
