14
Coordinates from XML
C -0.113715 -0.94833 -1.86242
C 0.00451045 0.0777525 -3.0437
O -0.875476 1.02183 -3.0778
O 0.981589 -0.141161 -3.86245
H -0.95117 -0.694241 -1.20122
H -0.255457 -1.95906 -2.2733
H 0.826527 -0.955309 -1.29142
C 1.12129 -0.122094 2.04091
C -0.0847227 0.00669259 3.03649
O 0.0423982 -0.586445 4.17616
O -1.08461 0.69984 2.59747
H 1.93694 -0.707528 2.48258
H 0.77583 -0.603009 1.11362
H 1.48185 0.882527 1.77468
