14
Coordinates from XML
C -0.113714892369 -0.948329521519 -1.86242294211
C 0.004510449905 0.077752532134 -3.043702388163
O -0.875476492721 1.021829148221 -3.077795009468
O 0.981588592026 -0.141161097895 -3.862452180618
H -0.951169757113 -0.694241086453 -1.201215509175
H -0.255457309225 -1.959059780215 -2.27329870974
H 0.826526754408 -0.955309386834 -1.291423145538
C 1.121293385047 -0.122093585215 2.040909538223
C -0.084722735653 0.006692588752 3.036490765476
O 0.042398181729 -0.586445284852 4.17616076961
O -1.084605814432 0.699839573304 2.597472334834
H 1.936941813528 -0.707527574026 2.482578575564
H 0.775830274246 -0.603009047848 1.11362262368
H 1.481853093406 0.882527149727 1.774680846734
