14
Coordinates from XML
C -1.39996 -0.159583 -2.65317
C 0.110037 0.00658732 -2.26006
O 0.683778 -1.02025 -1.72785
O 0.616653 1.16911 -2.51469
H -1.75846 -1.17061 -2.42429
H -2.0005 0.582502 -2.10623
H -1.52107 0.0474555 -3.72677
C -1.44595 -0.117053 2.17691
C 0.113062 0.00716687 2.30461
O 0.615044 -0.210187 3.47406
O 0.728208 0.319294 1.21048
H -1.89934 -0.39806 3.13532
H -1.85919 0.843778 1.83556
H -1.6893 -0.869069 1.4118
