14
Coordinates from XML
C -1.399376150439 0.139714905654 -2.893173389185
C 0.110881535345 -0.013970091457 -2.49600165524
O 0.844164960885 -0.728591984368 -3.282405464401
O 0.455884562528 0.598692917256 -1.410380614151
H -1.617533968134 -0.390527563276 -3.828233250053
H -2.029228278269 -0.257017147645 -2.08300338236
H -1.639723635013 1.207626243357 -3.002454229236
C 0.069918009349 -1.316069826302 1.903473323333
C -0.003749516223 0.105799741168 2.563096527011
O 0.426065665448 1.094217315161 1.852385902292
O -0.491218684736 0.128326529732 3.760937271606
H 0.477324154563 -1.258864522192 0.886696731004
H 0.701432761593 -1.970446181699 2.522719775241
H -0.936946966843 -1.758579759824 1.879984624128
