14
Coordinates from XML
C -0.612794 1.31822 -2.88721
C 0.046696 -0.103707 -2.96093
O -0.0690631 -0.735752 -4.08073
O 0.638237 -0.488993 -1.87715
H -1.0812 1.58607 -3.84217
H -1.36667 1.32683 -2.08591
H 0.154213 2.06153 -2.62389
C -0.901802 0.594253 1.97492
C 0.0660373 -0.0472861 3.03036
O -0.437657 -0.310654 4.18956
O 1.27592 -0.241032 2.61612
H -1.91099 0.715421 2.38716
H -0.504267 1.57268 1.66648
H -0.936456 -0.04293 1.07885
