14
Coordinates from XML
C 0.679776 -0.705029 -2.23399
C -0.0586886 0.0540169 -3.3919
O -1.34813 -0.0104489 -3.39333
O 0.717118 0.665391 -4.22695
H -0.0370084 -1.18596 -1.55722
H 1.35052 -1.46203 -2.66704
H 1.30549 0.00587724 -1.67431
C 0.516285 -0.435168 2.02119
C -0.0356855 0.0315058 3.41395
O 0.598975 -0.38971 4.45635
O -1.07912 0.794004 3.36102
H 1.40728 -1.0637 2.1402
H -0.267719 -0.995169 1.48994
H 0.758692 0.447968 1.41172
