14
Coordinates from XML
C -1.12875 0.381559 -3.495
C 0.0878563 -0.0358033 -2.59615
O 0.324585 -1.30111 -2.49732
O 0.724127 0.946986 -2.04639
H -1.61071 -0.497557 -3.93992
H -1.85606 0.937626 -2.88484
H -0.779399 1.0595 -4.28778
C 0.194225 -0.931304 3.76083
C -0.0116616 0.0771219 2.57638
O 0.500459 1.25297 2.72445
O -0.681585 -0.387935 1.57245
H 0.781409 -0.477158 4.56833
H -0.788076 -1.24527 4.14423
H 0.70358 -1.83191 3.3872
