14
Coordinates from XML
C 1.20046 -0.821999 -3.15732
C -0.0970399 0.0602988 -3.17436
O -1.07249 -0.362669 -3.90676
O -0.0425342 1.12707 -2.44499
H 1.07894 -1.71477 -3.78284
H 2.04983 -0.224265 -3.52033
H 1.42588 -1.11712 -2.12184
C 0.0665021 1.20786 2.36155
C -0.00522566 -0.0981906 3.22834
O -0.166902 -1.20736 2.5877
O 0.105101 0.0853249 4.50392
H -0.018173 0.977279 1.29256
H -0.744693 1.88745 2.66256
H 1.01743 1.72412 2.55994
