14
Coordinates from XML
C -0.357215466418 1.113221345962 -4.026052639494
C 0.029006710714 -0.083472854528 -3.087437615932
O 0.458292047001 0.223115029917 -1.909075213178
O -0.126102379879 -1.257874223679 -3.60674358549
H -0.21602457347 2.074939657648 -3.517869726164
H 0.262695573857 1.076012270452 -4.934243837343
H -1.405930930448 1.005138040185 -4.3401508965
C 1.297041587303 -0.657195891586 3.211850934329
C -0.100261372123 0.05496805098 3.160765706141
O -0.373327640515 0.859607831524 4.132778884906
O -0.83204595302 -0.249286778009 2.138573736858
H 1.868544461897 -0.34232595156 4.093513136016
H 1.147661360666 -1.747021246187 3.233104389676
H 1.85918510556 -0.421016626049 2.296232094445
