14
Coordinates from XML
C -0.357215 1.11322 -4.02605
C 0.0290067 -0.0834729 -3.08744
O 0.458292 0.223115 -1.90908
O -0.126102 -1.25787 -3.60674
H -0.216025 2.07494 -3.51787
H 0.262696 1.07601 -4.93424
H -1.40593 1.00514 -4.34015
C 1.29704 -0.657196 3.21185
C -0.100261 0.0549681 3.16077
O -0.373328 0.859608 4.13278
O -0.832046 -0.249287 2.13857
H 1.86854 -0.342326 4.09351
H 1.14766 -1.74702 3.2331
H 1.85919 -0.421017 2.29623
