14
Coordinates from XML
C -0.297946 1.20599 -1.95249
C 0.0201981 -0.0923708 -2.77424
O -0.55549 -0.20234 -3.92459
O 0.832356 -0.918398 -2.19889
H -0.978136 1.86588 -2.50473
H -0.750504 0.923873 -0.990153
H 0.640687 1.73515 -1.7309
C -0.638389 0.415692 1.47037
C 0.0533487 -0.0273934 2.80732
O 1.01123 0.723744 3.23751
O -0.41831 -1.11037 3.33425
H -0.200463 1.34617 1.0889
H -0.527063 -0.383668 0.722635
H -1.71564 0.552453 1.64634
