14
Coordinates from XML
C -0.910502 -1.00146 -3.14386
C 0.0736632 0.0795736 -2.57374
O 0.923562 0.581747 -3.40579
O -0.0774556 0.348443 -1.31762
H -0.736912 -1.16806 -4.214
H -0.77323 -1.94333 -2.59203
H -1.94717 -0.672604 -2.97856
C 1.42418 -0.297097 2.62984
C -0.111653 0.0242105 2.61445
O -0.674725 0.204173 3.76222
O -0.648686 0.0714347 1.43872
H 1.81527 -0.306214 3.65456
H 1.59439 -1.27549 2.15627
H 1.95894 0.454725 2.03073
