14
Coordinates from XML
C 0.929296 -0.744443 -1.6637
C -0.0698867 0.0635435 -2.56428
O 0.0460353 1.34923 -2.54423
O -0.90967 -0.658116 -3.2328
H 1.61982 -0.0726367 -1.13936
H 0.359725 -1.33874 -0.933708
H 1.49509 -1.4495 -2.29052
C 1.25275 -0.675703 2.19797
C -0.0951276 0.0579861 2.52533
O 0.00087918 1.22944 3.05947
O -1.16498 -0.602283 2.22132
H 2.11575 -0.0542376 2.46646
H 1.29096 -1.62665 2.74999
H 1.28376 -0.917699 1.1253
