14
Coordinates from XML
C 1.42948 0.205819 -2.78712
C -0.112509 -0.0181689 -2.6018
O -0.772969 -0.379342 -3.65069
O -0.555085 0.188668 -1.40418
H 1.7372 -0.00144954 -3.81932
H 1.67882 1.24471 -2.5244
H 1.97789 -0.44855 -2.09344
C 0.633013 1.18338 3.17218
C -0.0467826 -0.0962966 2.57006
O 0.325368 -1.23149 3.05961
O -0.913412 0.132329 1.63752
H 1.3425 0.917336 3.96523
H 1.15507 1.72732 2.37089
H -0.142694 1.85324 3.57182
