14
Coordinates from XML
C -0.362118 1.40253 -2.25331
C 0.0305364 -0.110078 -2.39502
O 0.69293 -0.628164 -1.4154
O -0.35664 -0.67507 -3.49221
H -0.0167821 1.81197 -1.29613
H 0.08083 1.97122 -3.0845
H -1.45468 1.50349 -2.33236
C -0.881396 -1.15741 2.36886
C 0.0659193 0.0933906 2.38712
O -0.11781 0.969606 1.4569
O 0.937098 0.105644 3.34307
H -1.60211 -1.0947 1.5444
H -0.274986 -2.06969 2.2664
H -1.4143 -1.22394 3.32892
