14
Coordinates from XML
C -0.802793 -0.168659 -1.70834
C 0.0634438 0.0192098 -3.00317
O 0.351737 1.23368 -3.33297
O 0.394162 -1.07756 -3.60373
H -1.03292 0.797909 -1.24372
H -1.73618 -0.689414 -1.96928
H -0.258952 -0.8072 -0.996547
C 1.4219 -0.299677 2.83707
C -0.11242 0.0208583 2.91034
O -0.809451 -0.251996 1.85843
O -0.511667 0.53083 4.02993
H 1.68689 -0.742247 1.86909
H 1.99353 0.627357 2.99305
H 1.68835 -0.990147 3.65095
