14
Coordinates from XML
C 0.313231 -1.39896 -2.30107
C -0.0206228 0.109743 -2.57422
O 0.677359 0.698801 -3.48671
O -0.968421 0.600972 -1.84392
H 1.11261 -1.75256 -2.96368
H 0.618506 -1.51806 -1.25078
H -0.592977 -2.00458 -2.4499
C 1.25967 -0.480466 3.09731
C -0.0969733 0.036009 2.50147
O -0.199944 0.0329873 1.21454
O -0.970482 0.413545 3.37749
H 1.94503 -0.797274 2.3017
H 1.72265 0.321056 3.69203
H 1.06101 -1.32122 3.77835
