14
Coordinates from XML
C -0.345593978815 -0.736103036156 -2.153484805827
C 0.021880095419 0.055886483713 -3.457309236966
O -0.770084026431 -0.09428817712 -4.465803353959
O 1.091749366889 0.778099829856 -3.375189078157
H -1.268707044622 -1.312818814239 -2.288939712464
H 0.482821254691 -1.412316648418 -1.894740112178
H -0.464085043245 -0.028560435928 -1.319526067608
C -0.127649329183 -0.843702137954 2.181511931768
C 0.013307705517 0.06180712199 3.455257132574
O 0.586062994358 -0.472002351771 4.481813905426
O -0.467993305972 1.256123132408 3.333131379901
H 0.313722631228 -1.833575630643 2.350118318715
H -1.192994444548 -0.948052137104 1.92727517626
H 0.366180507704 -0.352717341225 1.329919387109
