14
Coordinates from XML
C -0.0454522 1.38889 -2.26859
C 0.00517038 -0.107101 -2.73942
O 0.217578 -0.3091 -3.99676
O -0.175829 -0.981349 -1.80353
H 0.130525 2.07297 -3.10773
H -1.02845 1.59416 -1.81906
H 0.712397 1.55013 -1.48768
C -0.903568 1.04836 3.14913
C 0.0703518 -0.0849366 2.67021
O 0.421437 -0.956065 3.55604
O 0.41828 -0.0174117 1.42629
H -1.16818 0.920889 4.20592
H -0.4225 2.0265 2.9998
H -1.81273 1.0321 2.53001
