14
Coordinates from XML
C -0.045452191187 1.388893686638 -2.268587323642
C 0.005170379242 -0.107100566083 -2.739417753033
O 0.217578353712 -0.309100399404 -3.996755775516
O -0.175828600697 -0.98134930899 -1.803530686848
H 0.130524831579 2.07296526883 -3.107732728552
H -1.028445623855 1.594160347902 -1.819059822694
H 0.712397305115 1.550125882726 -1.487682617267
C -0.903567721905 1.048360379464 3.149126102029
C 0.070351758534 -0.084936572623 2.670208983873
O 0.421436669889 -0.956064819482 3.556039072324
O 0.418280437412 -0.017411693192 1.426286911981
H -1.16817783592 0.92088856184 4.205922807151
H -0.422500314086 2.026502453248 2.99980196589
H -1.812728733941 1.032096190913 2.530009335253
