14
Coordinates from XML
C -0.895377625359 -0.63018142487 -2.151737596674
C 0.074354176869 0.044913084629 -3.184263807983
O 1.247956111621 -0.480133737085 -3.30175558138
O -0.416285197683 1.065968087376 -3.808503971199
H -0.421325428241 -1.495365553318 -1.672344448021
H -1.18342980785 0.108363947977 -1.388807627795
H -1.814712612073 -0.944121872818 -2.667885267292
C 0.450395397235 -1.377268528632 3.241810591764
C -0.035881566673 0.107262258263 3.093669445612
O -0.192300362588 0.545424428895 1.889357585845
O -0.226067034954 0.734253827779 4.208867703895
H 0.576037969025 -1.851233347375 2.260659152163
H 1.404610681123 -1.393015322749 3.789268987877
H -0.28036715493 -1.941229742462 3.840206516039
