14
Coordinates from XML
C -0.895378 -0.630181 -2.15174
C 0.0743542 0.0449131 -3.18426
O 1.24796 -0.480134 -3.30176
O -0.416285 1.06597 -3.8085
H -0.421325 -1.49537 -1.67234
H -1.18343 0.108364 -1.38881
H -1.81471 -0.944122 -2.66789
C 0.450395 -1.37727 3.24181
C -0.0358816 0.107262 3.09367
O -0.1923 0.545424 1.88936
O -0.226067 0.734254 4.20887
H 0.576038 -1.85123 2.26066
H 1.40461 -1.39302 3.78927
H -0.280367 -1.94123 3.84021
