14
Coordinates from XML
C -0.781928153489 -0.840357133791 -2.156005193257
C 0.066172740014 0.065460809109 -3.116453771167
O 1.24470982402 0.396235343714 -2.706016769981
O -0.518674526803 0.38493370269 -4.224987415505
H -0.220806744382 -1.084218548144 -1.245641953931
H -1.712780245631 -0.316577414704 -1.892083512765
H -1.063478135673 -1.764485925815 -2.682179521615
C 0.334864960465 1.137832420567 2.207361016046
C -0.03120492462 -0.086308461912 3.118247771428
O -1.017708318865 0.077128478515 3.934899106276
O 0.707037947328 -1.134640606885 2.948091162093
H -0.338710227797 1.98336030574 2.393010992718
H 1.374709259519 1.438200833026 2.40481510065
H 0.275672363592 0.835728150868 1.151248764794
