14
Coordinates from XML
C 0.276335 -1.40102 -2.78075
C -0.0225955 0.108492 -3.08777
O -0.178917 0.424414 -4.32977
O -0.0776591 0.877286 -2.04908
H 0.293419 -1.9954 -3.70243
H 1.2457 -1.48108 -2.26655
H -0.491192 -1.79176 -2.09638
C -0.709114 -1.13428 3.63251
C 0.0601389 0.0881406 3.01917
O 1.12919 0.465584 3.63682
O -0.470817 0.588278 1.95104
H -0.196644 -1.51618 4.52392
H -1.73207 -0.824613 3.89357
H -0.789986 -1.92937 2.87658
