14
Coordinates from XML
C 1.05285 -0.171755 -4.02942
C -0.0865693 0.010745 -2.9661
O -1.27883 -0.318532 -3.33612
O 0.300957 0.478417 -1.82414
H 0.656969 -0.584878 -4.96521
H 1.52779 0.801769 -4.22222
H 1.82665 -0.839254 -3.62221
C 0.107522 -0.857525 4.21049
C -0.00386528 0.0707677 2.95028
O 0.722347 1.1382 2.9543
O -0.822652 -0.34171 2.03792
H 0.827978 -0.456401 4.93376
H -0.882612 -0.949627 4.68127
H 0.415093 -1.86512 3.8938
