14
Coordinates from XML
C -0.727721 1.21692 -3.11637
C 0.0524932 -0.0987798 -2.76647
O -0.589825 -1.20819 -2.9196
O 1.26652 0.0779295 -2.35676
H -1.74136 0.992466 -3.47027
H -0.777129 1.85727 -2.22307
H -0.175241 1.77288 -3.88827
C 1.32675 0.558182 3.0025
C -0.102909 -0.0443242 2.76735
O -0.440839 -0.265857 1.54116
O -0.792165 -0.252341 3.84188
H 1.85903 0.693691 2.05308
H 1.23199 1.52501 3.51898
H 1.89941 -0.110992 3.6616
