14
Coordinates from XML
C 0.811293078707 1.187009538954 -2.197144873276
C -0.067042319631 -0.090107367874 -2.441566796129
O -1.099661833513 0.057107616361 -3.20238521798
O 0.346042746721 -1.160400429723 -1.844248132781
H 0.413066014925 2.050493317217 -2.743860359643
H 0.838430291313 1.407242456123 -1.119533394639
H 1.844277471868 0.984433159858 -2.516597365296
C -0.224842654878 -1.25339059102 1.716217135594
C 0.020569045385 0.095366448218 2.479676557261
O 0.547365359504 0.005216477374 3.654912112054
O -0.338785663182 1.159770228972 1.838689130852
H 0.115958654654 -2.110549450566 2.309698398658
H -1.297937812039 -1.354737631104 1.495579364241
H 0.306960617819 -1.228239857199 0.753566336874
