14
Coordinates from XML
C 0.811293 1.18701 -2.19714
C -0.0670423 -0.0901074 -2.44157
O -1.09966 0.0571076 -3.20239
O 0.346043 -1.1604 -1.84425
H 0.413066 2.05049 -2.74386
H 0.83843 1.40724 -1.11953
H 1.84428 0.984433 -2.5166
C -0.224843 -1.25339 1.71622
C 0.020569 0.0953664 2.47968
O 0.547365 0.00521648 3.65491
O -0.338786 1.15977 1.83869
H 0.115959 -2.11055 2.3097
H -1.29794 -1.35474 1.49558
H 0.306961 -1.22824 0.753566
