14
Coordinates from XML
C -1.093578053542 -0.376100684862 -1.846917268602
C 0.082399223678 0.034201442247 -2.801365983831
O -0.156540667926 0.993789447161 -3.63137717176
O 1.172628892899 -0.644879133434 -2.649034319531
H -1.978425599466 0.248634660749 -2.019652386928
H -1.34452294061 -1.434009888322 -2.015262883022
H -0.764177541529 -0.279473811272 -0.80178455429
C -1.436368796584 0.19357603793 2.858742186313
C 0.112344745418 -0.013348679496 2.714134896772
O 0.607537784093 0.145437988047 1.532445160961
O 0.726849187788 -0.32570946247 3.80856220246
H -1.88893865504 0.470426006126 1.89873100356
H -1.892586102615 -0.73507060063 3.232863363708
H -1.630235585074 0.978072303443 3.605150330866
