14
Coordinates from XML
C 0.848382 -1.12875 -2.85095
C -0.0634595 0.089243 -2.46718
O 0.111465 0.592659 -1.29126
O -0.900177 0.455845 -3.38286
H 1.54139 -1.37486 -2.03716
H 0.214259 -1.99881 -3.07762
H 1.41239 -0.887222 -3.76403
C -0.312936 -0.319981 3.88444
C 0.0227188 0.0194819 2.38967
O -0.0947743 -0.944524 1.53896
O 0.386016 1.24211 2.17487
H -0.627225 -1.36545 3.9908
H 0.574513 -0.131485 4.50685
H -1.11047 0.349583 4.23908
