14
Coordinates from XML
C -0.74883 1.18517 -1.92039
C 0.0637488 -0.0896021 -2.341
O 1.2913 0.0993004 -2.69349
O -0.596289 -1.20071 -2.28866
H -0.125319 2.086 -1.97351
H -1.62023 1.29434 -2.58313
H -1.12975 1.05222 -0.896981
C -1.43913 0.212538 2.28015
C 0.112589 -0.0175403 2.31839
O 0.646194 -0.157883 3.48561
O 0.690873 -0.0391315 1.16164
H -1.86447 0.203918 3.29114
H -1.65056 1.17666 1.79409
H -1.90816 -0.572706 1.66897
