14
Coordinates from XML
C 0.901099083637 0.877511580836 -3.101372860398
C -0.069022169188 -0.073507142068 -2.316088908215
O -0.188024519039 -1.276953423693 -2.768167962182
O -0.649669073773 0.462193793267 -1.291965001677
H 1.368665416363 0.355221494995 -3.944985119329
H 0.337097042743 1.748386402283 -3.46738407367
H 1.67578036649 1.252770688578 -2.416395961084
C -1.079947620549 0.421831505436 3.249023096193
C 0.087931319574 -0.028033831029 2.302491162069
O 1.057378632995 0.80981595784 2.144378478027
O -0.054231110191 -1.201995517307 1.778506526243
H -0.886928263941 1.416665510485 3.668708315206
H -2.022556016354 0.432142284233 2.681688481522
H -1.193561605979 -0.312210142092 4.060453045448
