14
Coordinates from XML
C 0.901099 0.877512 -3.10137
C -0.0690222 -0.0735071 -2.31609
O -0.188025 -1.27695 -2.76817
O -0.649669 0.462194 -1.29197
H 1.36867 0.355221 -3.94499
H 0.337097 1.74839 -3.46738
H 1.67578 1.25277 -2.4164
C -1.07995 0.421832 3.24902
C 0.0879313 -0.0280338 2.30249
O 1.05738 0.809816 2.14438
O -0.0542311 -1.202 1.77851
H -0.886928 1.41667 3.66871
H -2.02256 0.432142 2.68169
H -1.19356 -0.31221 4.06045
