14
Coordinates from XML
C 0.198073 0.0885858 -4.16869
C -0.0135897 -0.00113043 -2.61647
O 0.390824 1.00793 -1.92001
O -0.574875 -1.09068 -2.20319
H 0.662938 1.04162 -4.44924
H 0.83325 -0.747758 -4.49666
H -0.772724 -0.0187933 -4.67482
C -0.11311 1.18096 3.5723
C 0.0051731 -0.0956832 2.66762
O -0.553186 -1.17143 3.11239
O 0.658816 0.0744313 1.56455
H -0.690687 0.969095 4.48038
H 0.89528 1.52765 3.8433
H -0.594883 1.98813 3.00089
