14
Coordinates from XML
C -0.890726434671 -0.803865974171 -3.403199192695
C 0.074301353948 0.058947917528 -2.516341651972
O 1.231969953229 -0.451414938592 -2.259139100675
O -0.404996914035 1.198454682913 -2.135876676164
H -0.415713674545 -1.746482674856 -3.701399605155
H -1.812166171208 -1.011913401391 -2.839150839304
H -1.175782952922 -0.228290772121 -4.29628362808
C -0.887537264197 -0.895287565537 1.853371622105
C 0.064772844151 0.073547633775 2.638678285876
O -0.478415401628 1.127572519536 3.149362192913
O 1.303385592934 -0.296073426067 2.685313321427
H -1.921481692859 -0.529423835573 1.86713760268
H -0.536705131897 -0.984783103806 0.814433304118
H -0.838139663469 -1.897734810526 2.303708427834
