14
Coordinates from XML
C 0.051696777655 -0.226513044718 -4.156325793787
C -0.003780606855 0.023864272879 -2.608270174408
O 0.14031563604 1.245450627698 -2.216118375272
O -0.188044602783 -1.035398235441 -1.889266826613
H 0.194260303733 0.713456526459 -4.703335573388
H 0.876414855582 -0.918892563994 -4.382016197289
H -0.881305115754 -0.711230906913 -4.479899435333
C 0.857597588874 1.175138219691 2.744274505136
C -0.063211971065 -0.095084160653 2.714481874387
O 0.308282809507 -1.05863802237 1.939642815846
O -1.10555903883 -0.032891438288 3.477764752142
H 1.727207060823 1.047735005283 2.088046922706
H 0.274923527126 2.05254149259 2.426249506943
H 1.190201937739 1.358956752848 3.776615986683
