14
Coordinates from XML
C -0.77546 -0.214218 -1.67762
C 0.0563912 0.020531 -2.98726
O -0.518713 0.701118 -3.92154
O 1.23938 -0.50244 -2.98479
H -1.75857 0.267791 -1.74275
H -0.899443 -1.29543 -1.5161
H -0.218423 0.184238 -0.816758
C -1.05773 0.995848 2.80886
C 0.0787506 -0.0825829 2.89627
O -0.299857 -1.3107 3.01963
O 1.28288 0.385831 2.83615
H -2.04924 0.528661 2.85049
H -0.945434 1.70865 3.6394
H -0.949251 1.56331 1.87272
