14
Coordinates from XML
C -0.610389473566 -1.303954667074 -2.309701846174
C 0.047147103567 0.101632652896 -2.542538006861
O 0.247467131803 0.448422315957 -3.769904618328
O 0.320062328306 0.76292930958 -1.464966613481
H -0.828094356584 -1.800685122606 -3.263090691893
H 0.069845750997 -1.927348392839 -1.710414129844
H -1.537531319918 -1.180212990533 -1.730702852418
C 1.044034727347 -0.981344299837 2.266914557174
C -0.084713112148 0.072980969796 2.543626108611
O -1.083348424606 -0.325418505173 3.258346581326
O 0.113387309154 1.237309731376 2.016320832795
H 0.819056641436 -1.937669012679 2.754679620655
H 1.142841526949 -1.129823707538 1.181245847647
H 2.004716446851 -0.590096830167 2.633192992014
