14
Coordinates from XML
C -1.425023337559 0.133259659708 -3.001593290187
C 0.111979152879 -0.004773425596 -2.717317097376
O 0.721004830958 1.058465218177 -2.310584638761
O 0.603213742201 -1.182794289989 -2.926867848207
H -1.775966254665 1.150469152343 -2.788965047209
H -1.622710684864 -0.117726716548 -4.054404297279
H -1.97565980321 -0.590713231629 -2.382879644108
C 1.197263979805 -0.290001870987 1.965830275298
C -0.092102210618 0.018925807959 2.805080689791
O -0.264025753559 -0.680386563124 3.876633061864
O -0.848857196284 0.950068231121 2.322119226189
H 1.797831966652 -1.075966398196 2.439818363575
H 0.903726884557 -0.603740485278 0.952968231078
H 1.793948494758 0.628619163123 1.864603668889
