14
Coordinates from XML
C -1.42502 0.13326 -3.00159
C 0.111979 -0.00477343 -2.71732
O 0.721005 1.05847 -2.31058
O 0.603214 -1.18279 -2.92687
H -1.77597 1.15047 -2.78897
H -1.62271 -0.117727 -4.0544
H -1.97566 -0.590713 -2.38288
C 1.19726 -0.290002 1.96583
C -0.0921022 0.0189258 2.80508
O -0.264026 -0.680387 3.87663
O -0.848857 0.950068 2.32212
H 1.79783 -1.07597 2.43982
H 0.903727 -0.60374 0.952968
H 1.79395 0.628619 1.8646
