14
Coordinates from XML
C 0.467825550328 -1.37732857232 -3.347273665752
C -0.035958315976 0.108465974354 -3.376584468818
O -0.185321820247 0.689433547979 -2.233349057781
O -0.249737770883 0.590190895822 -4.557768425941
H 0.642616281412 -1.714620841369 -2.318308662338
H -0.280604938793 -2.023239095196 -3.830116149795
H 1.39643880836 -1.457969304989 -3.931498219995
C -0.917651248013 0.172045118931 2.264078023524
C 0.075801356771 -0.009475821309 3.465054631271
O 1.207583328953 0.605197884811 3.375244912932
O -0.355176240965 -0.765784866212 4.42172125801
H -0.495292611441 0.835120608963 1.499204877625
H -1.138521310434 -0.812141657933 1.824671299887
H -1.866650606712 0.585358498585 2.636524137649
