14
Coordinates from XML
C 1.395035616926 0.397839712432 -2.87743508777
C -0.109844483549 -0.031463757172 -2.992661630862
O -0.703958808181 -0.352140696702 -1.892200612569
O -0.5920761161 -0.01767680718 -4.192752739255
H 1.732373058724 0.377975124076 -1.833933434117
H 2.013057136191 -0.281856097924 -3.482867554783
H 1.517341742416 1.409354406349 -3.292191734727
C 0.145252689832 -0.091784058731 4.4348354779
C -0.009042066478 0.012889480299 2.876798469209
O 0.250368338403 1.161508209161 2.34745808665
O -0.385516077735 -1.07663625578 2.290149438581
H 0.480633962202 0.860666750882 4.863138770085
H -0.820473536399 -0.380340640487 4.875962919918
H 0.866587883062 -0.88649838036 4.676182793079
