14
Coordinates from XML
C 0.664637 -0.817207 -1.68636
C -0.0557426 0.0594504 -2.77023
O -0.918116 -0.542647 -3.51896
O 0.301101 1.30246 -2.79369
H 0.303968 -1.85273 -1.71276
H 1.74999 -0.794944 -1.86522
H 0.487288 -0.383299 -0.691163
C 0.255544 0.962876 1.62961
C -0.0250849 -0.0773962 2.77036
O -1.1459 -0.714977 2.7065
O 0.908947 -0.179461 3.65925
H -0.567797 0.98607 0.905273
H 0.390409 1.96028 2.07399
H 1.19522 0.700486 1.12138
