14
Coordinates from XML
C -0.369677 -0.961036 -1.92199
C 0.0307546 0.0708529 -3.03424
O 0.63144 -0.405143 -4.07319
O -0.288141 1.2986 -2.78147
H -0.083934 -1.98061 -2.20817
H 0.123738 -0.685827 -0.977908
H -1.45528 -0.909297 -1.75189
C -1.23135 0.67592 3.32944
C 0.0977618 -0.0542111 2.92617
O 0.866412 -0.428681 3.89353
O 0.277584 -0.199194 1.65354
H -1.32567 0.75035 4.41969
H -1.2416 1.68189 2.88401
H -2.08882 0.125124 2.9153
