14
Coordinates from XML
C 0.865819747035 -0.101617057233 -4.035016514134
C -0.07265271203 0.009195215784 -2.78232627877
O -1.283508675302 0.399784853657 -3.001615024621
O 0.479598308146 -0.305311436442 -1.65580043695
H 0.329901066761 0.164002571202 -4.954431672704
H 1.730145590405 0.565681977088 -3.900338007009
H 1.252881134246 -1.128632694339 -4.109623512529
C 0.319867714607 -0.10358221408 1.454305990749
C -0.027782157109 0.002662705797 2.980770640109
O -0.77466291762 -0.93068828512 3.468464232845
O 0.477684468669 1.027518606279 3.58668314975
H -0.127033882386 -1.00095402447 1.009233357119
H -0.048651110324 0.793916986732 0.935485670003
H 1.412744910082 -0.128061641058 1.331163659264
