14
Coordinates from XML
C -1.30785 0.611735 -2.62061
C 0.102092 -0.0474134 -2.82017
O 0.462836 -0.28 -4.03779
O 0.752374 -0.288749 -1.72846
H -1.79477 0.801791 -3.58491
H -1.93578 -0.0539012 -2.00977
H -1.19312 1.5547 -2.06581
C 0.66305 -0.935208 1.90411
C -0.0567998 0.0737565 2.86642
O -1.15201 0.602524 2.43313
O 0.5363 0.266601 3.99956
H 0.0992802 -1.06212 0.971827
H 1.67471 -0.564482 1.68142
H 0.773439 -1.9053 2.41094
