14
Coordinates from XML
C 1.33564 -0.540575 -2.33817
C -0.105806 0.0422723 -2.54978
O -0.861623 0.105004 -1.50498
O -0.379432 0.397261 -3.76307
H 1.50391 -0.805485 -1.28718
H 1.46347 -1.43019 -2.97278
H 2.07942 0.202614 -2.6616
C -0.786579 1.15465 2.94615
C 0.065388 -0.0869735 2.50482
O 0.982443 0.127352 1.62171
O -0.251883 -1.2006 3.08112
H -0.454535 2.06438 2.43115
H -1.84688 0.964506 2.72235
H -0.699748 1.28676 4.0348
