14
Coordinates from XML
C -0.211559 1.32143 -3.69115
C 0.0183582 -0.105675 -3.08061
O 0.322269 -1.04617 -3.91122
O -0.126116 -0.181273 -1.7975
H -0.0582481 1.31548 -4.77722
H -1.23459 1.65382 -3.46007
H 0.479692 2.03479 -3.21847
C -0.365621 1.09872 4.00106
C 0.0306855 -0.0893017 3.05566
O 0.664986 -1.07299 3.60049
O -0.325324 0.0527262 1.82033
H -0.0474888 0.905174 5.03277
H 0.100778 2.02506 3.63383
H -1.4555 1.24378 3.96536
