14
Coordinates from XML
C 1.220495632003 0.68149312903 -3.553541607815
C -0.094597152681 -0.052161359325 -3.112491949115
O -0.293430679849 -0.165355911423 -1.84187312157
O -0.840613340217 -0.468335474456 -4.08368454057
H 1.794903678678 1.019722824533 -2.682483101353
H 1.831128413173 -0.003254940808 -4.160775625651
H 0.961543027363 1.541186510971 -4.18916309749
C -0.342526941156 -1.387411122122 3.423228639478
C 0.025272485675 0.108134554968 3.1227133297
O -0.039863978178 0.48123042745 1.888461858534
O 0.358634480761 0.807953589127 4.158125902314
H -0.629024803373 -1.915490557488 2.505547901109
H 0.521050478966 -1.886633511295 3.88744465666
H -1.169004301432 -1.419892696882 4.148503732661
