14
Coordinates from XML
C 1.2205 0.681493 -3.55354
C -0.0945972 -0.0521614 -3.11249
O -0.293431 -0.165356 -1.84187
O -0.840613 -0.468335 -4.08368
H 1.7949 1.01972 -2.68248
H 1.83113 -0.00325494 -4.16078
H 0.961543 1.54119 -4.18916
C -0.342527 -1.38741 3.42323
C 0.0252725 0.108135 3.12271
O -0.039864 0.48123 1.88846
O 0.358634 0.807954 4.15813
H -0.629025 -1.91549 2.50555
H 0.52105 -1.88663 3.88744
H -1.169 -1.41989 4.1485
