14
Coordinates from XML
C -0.736317 0.762191 -4.15688
C 0.0572516 -0.0552139 -3.07784
O 0.355059 0.567265 -1.98667
O 0.329289 -1.27599 -3.40746
H -0.945398 1.78015 -3.80598
H -0.149046 0.800693 -5.08646
H -1.67884 0.243097 -4.38567
C 0.0425258 -1.31987 3.77074
C -0.00228726 0.101083 3.10657
O 0.305808 0.16233 1.85431
O -0.345338 1.06435 3.89864
H 0.324728 -2.08815 3.04054
H 0.765217 -1.30943 4.60025
H -0.944003 -1.5527 4.19817
