14
Coordinates from XML
C -1.44874 0.0878004 -2.5975
C 0.113478 -0.00356157 -2.71311
O 0.641534 0.480178 -3.78734
O 0.704504 -0.562145 -1.70731
H -1.88108 0.584465 -3.47471
H -1.86467 -0.926034 -2.49938
H -1.71401 0.640906 -1.68435
C -0.0683567 0.581811 4.03187
C 0.00287759 -0.0405351 2.59318
O -0.535164 0.645329 1.64085
O 0.598507 -1.18644 2.52194
H -0.571022 1.55657 4.01583
H -0.609423 -0.10664 4.69803
H 0.950702 0.691603 4.43138
