14
Coordinates from XML
C -0.963798629887 0.674854393064 -3.666004588322
C 0.080080951041 -0.049850042735 -2.745482104454
O 1.3256654149 0.189194971503 -2.986722249588
O -0.430748106919 -0.816803362474 -1.837852017497
H -0.46327740425 1.318183772469 -4.399961443298
H -1.574278329345 -0.079161318948 -4.184907573082
H -1.643413563047 1.27475554896 -3.042798373399
C -1.038969361531 -1.011632610789 2.69074802957
C 0.078724503491 0.081603180272 2.824309518358
O -0.091695288099 0.971198055145 3.744308451127
O 1.057029490997 -0.031259410291 1.985776583442
H -1.826510705639 -0.864538347161 3.439900057941
H -1.471465539277 -0.96599978607 1.680129324742
H -0.588849860325 -2.008266276612 2.81015326949
