14
Coordinates from XML
C -0.756456 -1.12722 -1.73619
C 0.0548798 0.0922064 -2.2992
O -0.533239 1.24104 -2.26578
O 1.23625 -0.194186 -2.74112
H -1.73911 -0.810378 -1.36593
H -0.880909 -1.87762 -2.5311
H -0.184503 -1.60092 -0.924631
C -1.0108 -0.526785 3.16444
C 0.0803829 0.0356109 2.18706
O 0.775892 -0.835872 1.53621
O 0.163174 1.32566 2.14387
H -1.03604 -1.62306 3.13915
H -0.794328 -0.181542 4.18641
H -1.99427 -0.122165 2.883
