14
Coordinates from XML
C 0.429603 1.37821 -2.32857
C -0.0342973 -0.108762 -2.51815
O -0.186503 -0.806941 -1.44288
O -0.212605 -0.473622 -3.74617
H 0.545983 1.62293 -1.26571
H 1.38459 1.52952 -2.85353
H -0.308435 2.05096 -2.78994
C -1.30839 -0.280713 3.0812
C 0.100054 0.0256724 2.46099
O 0.111889 0.714099 1.36886
O 1.10405 -0.453575 3.12074
H -2.10986 0.166906 2.48088
H -1.44932 -1.37031 3.13951
H -1.34605 0.11031 4.10873
