14
Coordinates from XML
C 0.993245 -1.05243 -2.41913
C -0.0737355 0.0867873 -2.58031
O 0.2917 1.27345 -2.2266
O -1.21499 -0.295868 -3.05368
H 1.9384 -0.655659 -2.02882
H 0.601323 -1.82209 -1.73758
H 1.16212 -1.53301 -3.39415
C 0.00288483 1.11086 1.63038
C -0.00248806 -0.0908451 2.6394
O -0.552588 -1.18488 2.23037
O 0.550093 0.153 3.78314
H -0.466099 0.829923 0.679472
H -0.535727 1.96047 2.07595
H 1.03966 1.43475 1.45623
