14
Coordinates from XML
C 1.35661 0.494589 -2.72906
C -0.10724 -0.0386768 -2.54194
O -0.837403 -0.104217 -3.60467
O -0.423018 -0.355016 -1.3282
H 1.56013 0.728145 -3.78126
H 1.49561 1.39534 -2.11278
H 2.06832 -0.262667 -2.36827
C 0.0912036 0.808578 3.75621
C -0.00103922 -0.0642986 2.45551
O 1.11763 -0.451686 1.94042
O -1.20272 -0.299257 2.03872
H 1.13489 0.954832 4.06023
H -0.384616 1.78348 3.57278
H -0.469774 0.316776 4.56466
