14
Coordinates from XML
C 0.189904 -1.05418 -2.16525
C -0.00995228 0.0855661 -3.2251
O 0.767242 1.11135 -3.12238
O -0.94414 -0.13222 -4.09275
H 1.0052 -0.810916 -1.473
H -0.746219 -1.196 -1.60485
H 0.407773 -1.99927 -2.68437
C 0.838398 -0.964086 2.45379
C -0.0613253 0.0764553 3.20878
O 0.39802 0.532919 4.32568
O -1.17746 0.362445 2.62105
H 1.77234 -1.14735 2.99899
H 0.28267 -1.90648 2.33737
H 1.06079 -0.587643 1.44434
