14
Coordinates from XML
C -0.0377235 1.21941 -1.94702
C -0.000314761 -0.0928487 -2.80656
O -0.709016 -0.095804 -3.88571
O 0.744275 -1.03729 -2.33056
H -0.673627 1.98031 -2.41579
H -0.417031 0.983265 -0.941613
H 0.985368 1.6061 -1.82911
C 0.429959 1.39006 2.7484
C -0.0372389 -0.107862 2.73451
O -0.960229 -0.416242 1.88609
O 0.560923 -0.875167 3.5868
H -0.105957 1.9777 1.99304
H 0.252964 1.81552 3.74747
H 1.51284 1.43493 2.55997
