14
Coordinates from XML
C 1.102744389917 0.947675823754 -2.087647632771
C -0.083562080624 -0.07761830018 -2.148406660355
O -0.013820455244 -0.98675902859 -3.062419365244
O -1.011159249822 0.106461811185 -1.266004201064
H 1.857568346326 0.723651149626 -2.851284059939
H 0.710594131669 1.964726876853 -2.237015619136
H 1.559803606441 0.916010065538 -1.087528643407
C -0.236865191666 -1.396688507234 1.808288904874
C 0.020408407027 0.107980869676 2.171638741333
O 0.33169390826 0.359779656791 3.399041971976
O -0.111807832716 0.938218382242 1.188693862643
H -0.092850540478 -2.04393241382 2.682029117018
H -1.262901158151 -1.506933247912 1.426737129047
H 0.447290454158 -1.697942401658 1.001244306403
