14
Coordinates from XML
C 0.501631 0.907231 -1.30916
C -0.0368774 -0.0677248 -2.41447
O 0.134227 0.299371 -3.64035
O -0.600782 -1.14267 -1.96787
H 0.979251 1.78698 -1.7575
H -0.333538 1.22257 -0.666086
H 1.22207 0.372668 -0.672478
C -0.517743 -1.03722 1.45083
C 0.0392053 0.0856546 2.39486
O 0.0822895 1.28025 1.90712
O 0.399144 -0.316842 3.57019
H -0.816979 -0.624043 0.479836
H 0.255716 -1.80639 1.3072
H -1.37853 -1.52373 1.93301
