14
Coordinates from XML
C 0.468886107107 0.160142285472 -1.722027295151
C -0.039352895389 -0.00700640086 -3.19715345079
O -0.811544671783 0.923308692915 -3.649981972228
O 0.375974465334 -1.072651888971 -3.801189023394
H 0.091969079512 1.089385589505 -1.27758687293
H 0.136225383496 -0.70162352112 -1.124380239975
H 1.568923662184 0.159624641892 -1.714220246841
C 0.012690317923 0.365779073837 1.681847334689
C 0.003545847638 -0.032676146931 3.199540504521
O 0.767362430381 -1.015460562775 3.542380121491
O -0.779645397379 0.675871973597 3.946217898374
H 0.707510072216 -0.263771423054 1.112656212488
H -1.004051012302 0.263114967103 1.274192316804
H 0.299478068555 1.423409757975 1.585338461535
