14
Coordinates from XML
C 0.913384 -0.950937 -3.32511
C -0.0684493 0.074413 -2.6566
O 0.110764 0.309161 -1.39978
O -0.959896 0.57443 -3.44923
H 1.64956 -1.32182 -2.60152
H 0.334854 -1.7926 -3.73424
H 1.42726 -0.465679 -4.16808
C -0.489712 1.24284 2.13343
C 0.0391848 -0.0947625 2.76059
O 0.481014 -0.0286618 3.97188
O -0.0257617 -1.12644 1.98317
H -0.419404 2.06988 2.85048
H 0.0974818 1.47794 1.2332
H -1.53473 1.10797 1.81739
