14
Coordinates from XML
C 0.264707 1.25685 -1.78633
C -0.0218802 -0.0955023 -2.5288
O -0.44213 -0.00714588 -3.74634
O 0.195925 -1.16076 -1.82828
H 0.0741552 2.11522 -2.44205
H -0.372708 1.32123 -0.891882
H 1.31052 1.2699 -1.44539
C -1.14568 0.83924 2.78658
C 0.0874437 -0.0703261 2.44845
O 0.134787 -1.21926 3.03543
O 0.93005 0.440189 1.61039
H -1.8242 0.339338 3.48858
H -0.789728 1.78546 3.22069
H -1.68135 1.08551 1.85784
