14
Coordinates from XML
C -0.438711 -1.05737 -2.09193
C 0.0298406 0.0864237 -3.05859
O -0.736297 1.12236 -3.14032
O 1.14432 -0.140494 -3.67455
H -1.37913 -0.792364 -1.59347
H -0.569342 -1.98649 -2.66652
H 0.344271 -1.24298 -1.34184
C 0.590306 -0.967066 2.07712
C -0.0518225 0.0747893 3.05918
O -1.29846 0.35265 2.87075
O 0.750484 0.545951 3.95766
H -0.14791 -1.33502 1.35412
H 1.43004 -0.494547 1.54602
H 0.999973 -1.80794 2.65612
