14
Coordinates from XML
C 0.53802 0.619568 -2.01854
C -0.0378535 -0.0459239 -3.31766
O 0.497683 0.31389 -4.43595
O -0.998097 -0.889682 -3.12028
H 1.35632 1.30959 -2.25799
H -0.267912 1.16103 -1.50106
H 0.896509 -0.165336 -1.33622
C -0.0110904 -0.272828 1.79091
C 0.00684027 0.0200279 3.33239
O 1.10196 -0.254121 3.95879
O -1.09218 0.507647 3.80919
H 0.954441 -0.668698 1.45309
H -0.809786 -0.996189 1.56884
H -0.247576 0.653943 1.24749
