14
Coordinates from XML
C -0.273336 1.08696 -2.09213
C 0.0206594 -0.0893339 -3.0882
O 0.103119 -1.27163 -2.57615
O 0.151052 0.262057 -4.32613
H -0.386935 0.71626 -1.06609
H 0.550706 1.81455 -2.13741
H -1.18935 1.60893 -2.40615
C -0.377395 -0.422938 4.36008
C 0.0354771 0.0331419 2.91656
O 1.28532 0.298152 2.73087
O -0.935289 0.0951646 2.06408
H 0.494334 -0.467867 5.02428
H -1.11922 0.281837 4.7644
H -0.85895 -1.4105 4.30555
