14
Coordinates from XML
C -1.361637951828 0.15140809065 -3.639917386372
C 0.104786445076 -0.011774246014 -3.105863311192
O 0.266861759838 0.080192387144 -1.828329079246
O 0.998541531388 -0.220848347606 -4.017151389464
H -2.066814587527 0.310008719302 -2.814897019508
H -1.401497140253 1.003705732575 -4.334529105012
H -1.644059158404 -0.747662274005 -4.207415916779
C 0.441717655819 -1.087442933919 2.290142448266
C -0.028979341028 0.08735577466 3.21779274527
O 0.898247973688 0.830120029484 3.723134957698
O -1.309372525784 0.179957074768 3.375825613734
H 1.53382918858 -1.096992027832 2.188712336855
H 0.097397092857 -2.043083146341 2.712848728477
H -0.026167753172 -0.979051270931 1.300456471814
