14
Coordinates from XML
C 0.885993 -1.01943 -3.74099
C -0.0711846 0.0815627 -3.16317
O -0.647648 0.853413 -4.02268
O -0.175216 0.093893 -1.87399
H 0.914459 -0.98211 -4.83684
H 1.89769 -0.868956 -3.33564
H 0.543297 -2.0103 -3.40801
C 0.133753 1.02814 4.22075
C -0.00899587 -0.076622 3.11559
O 0.0935257 0.316809 1.89023
O -0.217995 -1.27256 3.56169
H 0.324011 2.01148 3.77361
H -0.788272 1.06232 4.82007
H 0.956431 0.759078 4.89968
