14
Coordinates from XML
C 1.31684 0.571327 -3.34821
C -0.101431 -0.0466258 -3.08574
O -0.243626 -0.720974 -1.99402
O -0.979783 0.190191 -4.00518
H 2.00463 0.345002 -2.52432
H 1.71808 0.170026 -4.29079
H 1.22206 1.66057 -3.4695
C 1.3234 0.304075 3.63284
C -0.10163 -0.0232116 3.06327
O -0.25233 0.0906027 1.78611
O -0.977316 -0.372906 3.94862
H 2.01692 0.577239 2.82816
H 1.24406 1.13086 4.35438
H 1.70694 -0.571155 4.17783
