14
Coordinates from XML
C 1.316836790488 0.571326659486 -3.348214958936
C -0.101430985147 -0.0466258402 -3.085738356594
O -0.243625538391 -0.720973702891 -1.994016939669
O -0.979782682676 0.190191341239 -4.005179498751
H 2.004630017054 0.345001770702 -2.524319106967
H 1.718080774576 0.170026317115 -4.290789499995
H 1.222057554676 1.660570308739 -3.469495664573
C 1.323402698759 0.30407512486 3.632841563831
C -0.101630006186 -0.023211608986 3.063273371481
O -0.252329964942 0.090602663326 1.786106265378
O -0.977315950715 -0.372905861215 3.948623105981
H 2.016916574281 0.577238505871 2.828163289973
H 1.244057075972 1.130859551375 4.354379677323
H 1.706940442993 -0.571155115211 4.177832083154
