14
Coordinates from XML
C -1.13935 -0.844884 -2.77421
C 0.0914445 0.0656681 -2.4303
O 1.00005 0.175266 -3.34093
O 0.0583252 0.609776 -1.25736
H -1.05305 -1.25962 -3.78596
H -1.20223 -1.66164 -2.03975
H -2.06363 -0.254585 -2.68818
C -0.768538 0.954363 1.66539
C 0.057694 -0.0727412 2.51665
O -0.0268234 0.0417149 3.79984
O 0.741103 -0.92863 1.82864
H -1.33374 1.63771 2.31089
H -0.0828463 1.52778 1.02391
H -1.45673 0.40782 1.00371
