14
Coordinates from XML
C -1.161178949987 0.861556006017 -1.77788931529
C 0.093803001292 -0.06491046936 -1.947956696114
O 1.109280402807 0.195565259947 -1.194446228691
O -0.030550061942 -0.996385884815 -2.836689480439
H -0.992130119617 1.616305936039 -1.000160642315
H -1.379546065111 1.355341823958 -2.736522109449
H -2.035366310064 0.245762211576 -1.519551740113
C 0.245200127048 -1.382978281712 2.319660438635
C -0.02515707428 0.107195141038 1.909132856281
O -1.197753008612 0.37200540238 1.438267394244
O 0.970362488284 0.91315510489 2.088925606654
H -0.64316137441 -2.005020335618 2.155452099673
H 1.088754978988 -1.773557440085 1.731146549404
H 0.539115766608 -1.420648239128 3.379065182662
