14
Coordinates from XML
C 0.00974017 1.20828 -1.91931
C 0.00169988 -0.0916041 -2.79823
O 0.347265 0.0460211 -4.03454
O -0.356681 -1.1687 -2.17824
H 0.336977 2.07738 -2.50298
H -1.00143 1.38378 -1.52281
H 0.678573 1.06095 -1.05844
C 0.31605 1.34036 3.19987
C -0.0232604 -0.103447 2.6875
O 0.0261067 -0.28874 1.41077
O -0.320083 -0.956534 3.61329
H 0.572276 2.00509 2.36586
H -0.54943 1.74348 3.74661
H 1.15567 1.28668 3.90859
