14
Coordinates from XML
C 0.618738847166 -1.316908582923 -2.613807279167
C -0.046542384184 0.104232096467 -2.615478999041
O 0.179360438258 0.84553726085 -3.648075024181
O -0.754119780918 0.378010467496 -1.567941063185
H 1.188811370559 -1.486944895819 -3.535323325177
H 1.283622123777 -1.404653733378 -1.74161665662
H -0.162702576676 -2.084049330064 -2.50898258876
C 0.937468802167 -0.038720367006 1.497904622638
C -0.075042530592 0.008686270661 2.695742739325
O -0.645389290216 1.144178971921 2.924174090579
O -0.225248424583 -1.108871871235 3.32934994001
H 1.003697361915 0.935476167737 0.998263008825
H 1.92865583155 -0.334446731692 1.872844157789
H 0.615608962533 -0.80757912834 0.779986598565
