12
Coordinates from XML
N -0.134409427662 -1.237967391953 -0.414198175464
C 0.133543918745 0.114912837904 -1.017451669703
H -0.045346290002 -1.980678752565 -1.127974419274
H -1.089804419149 -1.280657752334 -0.021621249534
H 0.536778846094 -1.438903627429 0.345978741145
H -0.58690986813 0.247206792621 -1.83047992224
H 1.142742534604 0.078314436879 -1.439042275495
C 0.026633443007 1.295629377436 -0.035695244232
H -0.977884384768 1.355689237215 0.390258591558
H 0.235404986577 2.235998258355 -0.551817811065
H 0.745185469403 1.187305480511 0.780429754415
Li 2.3039083e-05 0.000200240725 3.124158820953
