12
Coordinates from XML
N -0.768471434643 0.078519279607 -1.734662099658
C 0.49240106067 -0.199903797638 -0.960918065031
H -0.639645202655 -0.14430496234 -2.736052180022
H -1.032609216048 1.074990906002 -1.657239689308
H -1.551765152439 -0.492462445257 -1.375261437956
H 1.281666699354 0.409155381858 -1.412223899655
H 0.728811562825 -1.257577745509 -1.112561800695
C 0.407774877536 0.099231550292 0.546637415953
H 0.181311021737 1.154058161494 0.720288979773
H 1.36020258598 -0.129735299554 1.031113767758
H -0.369698611231 -0.50630834559 1.018831765201
Li 0.000128838784 -1.4770093e-05 4.964121358183
