12
Coordinates from XML
N 1.086465807227 -0.41066024571 -0.086083114523
C 0.032355225685 -0.06624674614 -1.104036410945
H 1.92492510406 -0.803152699143 -0.546479265086
H 0.730523158429 -1.110246614731 0.586674228393
H 1.372679840662 0.430177149462 0.442889489725
H -0.198364469366 -0.988946795212 -1.645297282114
H 0.484961417662 0.649143022401 -1.79752400431
C -1.262513858835 0.528031589224 -0.52135777776
H -1.735922779723 -0.175511749503 0.167852413297
H -1.970925542231 0.749149733257 -1.323555600499
H -1.05511170257 1.456397690159 0.016444995487
Li -0.000174301928 6.5293555e-05 3.540652239614
