12
Coordinates from XML
N 0.396226433741 -1.181643263233 -0.650735183003
C -0.334807315396 0.064659034143 -0.228456919676
H 0.216343637806 -1.953659434363 0.013088698113
H 1.415918037874 -1.014510320665 -0.682583438343
H 0.088903799045 -1.485470544734 -1.589872976577
H 0.013061226194 0.309306620354 0.779861147817
H -1.397723603968 -0.192081231401 -0.185406627723
C -0.134015994375 1.279086584275 -1.152694792943
H 0.921373008444 1.557998915031 -1.202312207049
H -0.696580153722 2.137108870457 -0.776422263208
H -0.483937493961 1.058396453362 -2.164110585258
Li -6.729573e-05 0.000190646342 4.495339534686
