12
Coordinates from XML
N 0.519050862728 0.549860126622 -1.535851452749
C 0.007474982474 0.389659512685 -0.129215546575
H 0.90850376786 1.497102349172 -1.67758197311
H -0.242610449873 0.408413966604 -2.220383211036
H 1.264338235891 -0.13845815632 -1.734604281335
H -0.74990377931 1.164895252291 0.022300948028
H 0.852896625496 0.583188772125 0.538143876337
C -0.595664155727 -0.99044339748 0.188441836187
H -1.448598545932 -1.19957211968 -0.461841199772
H -0.940642524689 -1.022307287833 1.224895554903
H 0.148190223133 -1.779195100781 0.051831044921
Li -8.3361949e-05 -8.4188542e-05 3.575608047991
