12
Coordinates from XML
N -0.796947348605 0.296975869531 0.324799513873
C 0.148029055866 -0.541962699531 -0.493247161343
H -1.171248721127 -0.245464320149 1.121471376718
H -1.593987144117 0.616675858355 -0.250733439932
H -0.314420886598 1.130558708064 0.700360266436
H -0.416146305919 -1.417218095754 -0.829705838505
H 0.944182686733 -0.870117344968 0.182040816365
C 0.764307184484 0.173562773987 -1.70880943471
H -0.014700623096 0.501654615649 -2.401342829186
H 1.435064643149 -0.502446466696 -2.244866923937
H 1.34038774052 1.046918095347 -1.393384688834
Li 0.000129698702 -5.3580433e-05 3.853003088607
