12
Coordinates from XML
N 1.03541875312 0.131800900765 0.068596282326
C 0.167087669058 -0.231370406238 -1.106183024915
H 2.025342804255 -0.096035538465 -0.124198592718
H 0.743491377811 -0.387393219205 0.913542773373
H 0.970905191537 1.14328487293 0.272253318849
H 0.30805897413 -1.301754607235 -1.284998690622
H 0.550177394993 0.326336737227 -1.966278910332
C -1.33148965469 0.06837873057 -0.922380045528
H -1.73638583131 -0.486884113966 -0.072767084859
H -1.887406631216 -0.223127480885 -1.816942585261
H -1.495172982499 1.135164316714 -0.75124449664
Li -0.000164642795 -2.3685738e-05 4.02659896333
