12
Coordinates from XML
N 0.045528652614 -0.382716725415 0.487821699044
C 0.272811898664 -0.398239398214 -1.000163537171
H 0.461037451217 -1.219952033306 0.929883246122
H -0.965499873717 -0.37225487833 0.703299234072
H 0.475797140315 0.45470708419 0.914821003139
H -0.17709419535 -1.320909682389 -1.379418520223
H 1.355460694303 -0.441260420193 -1.153723639641
C -0.308551067049 0.808979210329 -1.757796303612
H -1.391742147698 0.864877014475 -1.624858567834
H -0.099912393816 0.720052290003 -2.826825583133
H 0.134932955332 1.741333898498 -1.399818997012
Li -4.384374e-06 5.7226923e-05 4.581928837707
