6
Coordinates from XML
H 0.760945110629 -0.244675743078 -1.827568762289
N -4.152622e-06 1.335242e-06 -1.187517712682
H -0.672121120087 0.602565251265 -1.670899920828
H -0.47060276225 -0.853892115585 -0.874546287068
H 0.381836472672 0.495984054119 -0.377118385529
Li -4.28e-10 1.38e-10 3.052478794817
