6
Coordinates from XML
H 0.388179143375 0.634996349527 -0.590628484365
N -2.118367e-06 -3.465296e-06 -1.293953830992
H 0.756245890276 -0.548752723653 -1.712816637738
H -0.673665754431 -0.630468933291 -0.849838092573
H -0.470729844362 0.544273457935 -2.022463425175
Li -2.19e-10 -3.57e-10 3.326050006771
