6
Coordinates from XML
H 0.892095983526 0.422252594304 -1.223458965729
N 6.026231e-05 2.0208479e-05 -0.952243615288
H -0.621570906822 -0.036129686388 -1.765005270408
H 0.163142241549 -0.949061302791 -0.605083865823
H -0.434052389923 0.562809264199 -0.21557135263
Li -6.4961872e-05 -2.1784439e-05 2.447727386025
