6
Coordinates from XML
H 0.892095983526 0.422252594304 -1.296278662295
N 6.026231e-05 2.0208479e-05 -1.025063311854
H -0.621570906822 -0.036129686388 -1.837824966974
H 0.163142241549 -0.949061302791 -0.677903562389
H -0.434052389923 0.562809264199 -0.288391049197
Li -6.4961872e-05 -2.1784439e-05 2.634907689458
