6
Coordinates from XML
H 0.892095983526 0.422252594304 -1.318684722777
N 6.026231e-05 2.0208479e-05 -1.047469372336
H -0.621570906822 -0.036129686388 -1.860231027456
H 0.163142241549 -0.949061302791 -0.700309622871
H -0.434052389923 0.562809264199 -0.310797109679
Li -6.4961872e-05 -2.1784439e-05 2.692501628976
