6
Coordinates from XML
H 0.892095983526 0.422252594304 -1.509136236873
N 6.026231e-05 2.0208479e-05 -1.237920886433
H -0.621570906822 -0.036129686388 -2.050682541552
H 0.163142241549 -0.949061302791 -0.890761136967
H -0.434052389923 0.562809264199 -0.501248623775
Li -6.4961872e-05 -2.1784439e-05 3.18205011488
