6
Coordinates from XML
H 0.892095983526 0.422252594304 -1.8172195685
N 6.026231e-05 2.0208479e-05 -1.546004218059
H -0.621570906822 -0.036129686388 -2.358765873179
H 0.163142241549 -0.949061302791 -1.198844468594
H -0.434052389923 0.562809264199 -0.809331955402
Li -6.4961872e-05 -2.1784439e-05 3.973966783253
