6
Coordinates from XML
H 0.084169919842 -0.555217005919 -0.046079834349
N -2.0071503e-05 -1.6436904e-05 -0.901784254929
H 0.74076927914 -0.267050355198 -1.556182954364
H -0.913051113316 -0.171655565344 -1.331651286591
H 0.088240169744 0.994027957051 -0.673843009653
Li 2.1636781e-05 1.7718737e-05 2.318091732023
