6
Coordinates from XML
H 0.084169919842 -0.555217005919 -0.124501046036
N -2.0071503e-05 -1.6436904e-05 -0.980205466616
H 0.74076927914 -0.267050355198 -1.634604166051
H -0.913051113316 -0.171655565344 -1.410072498278
H 0.088240169744 0.994027957051 -0.752264221339
Li 2.1636781e-05 1.7718737e-05 2.519670520336
