6
Coordinates from XML
H 0.084169919842 -0.555217005919 -0.354163165976
N -2.0071503e-05 -1.6436904e-05 -1.209867586556
H 0.74076927914 -0.267050355198 -1.864266285991
H -0.913051113316 -0.171655565344 -1.639734618218
H 0.088240169744 0.994027957051 -0.981926341279
Li 2.1636781e-05 1.7718737e-05 3.110008400396
