6
Coordinates from XML
H 0.084169919842 -0.555217005919 -0.426982862542
N -2.0071503e-05 -1.6436904e-05 -1.282687283122
H 0.74076927914 -0.267050355198 -1.937085982557
H -0.913051113316 -0.171655565344 -1.712554314784
H 0.088240169744 0.994027957051 -1.054746037846
Li 2.1636781e-05 1.7718737e-05 3.29718870383
