6
Coordinates from XML
H 0.084169919842 -0.555217005919 -0.729464679048
N -2.0071503e-05 -1.6436904e-05 -1.585169099629
H 0.74076927914 -0.267050355198 -2.239567799063
H -0.913051113316 -0.171655565344 -2.015036131291
H 0.088240169744 0.994027957051 -1.357227854352
Li 2.1636781e-05 1.7718737e-05 4.074706887323
