6
Coordinates from XML
H -0.070915847365 -0.996437020552 -1.496580179099
N -2.351719e-06 -4.8969752e-05 -1.719622350532
H -0.026279073617 0.125033339181 -2.735485325173
H -0.78404548118 0.501756028666 -1.293782646717
H 0.881255429473 0.369960565773 -1.353085851199
Li 2.535119e-06 5.2788663e-05 4.420288729456
