6
Coordinates from XML
H -0.828899110531 0.229240311189 -1.725746243438
N -6.4445782e-05 3.71963e-07 -1.170725675663
H 0.839874078435 0.309346456685 -1.667839252998
H -0.054121814783 0.473613111497 -0.264833787829
H 0.043558650626 -1.012202256187 -1.024389748212
Li 6.9471593e-05 -4.0097e-07 3.009293058372
