6
Coordinates from XML
H -0.828899110531 0.229240311189 -1.938603818017
N -6.4445782e-05 3.71963e-07 -1.383583250241
H 0.839874078435 0.309346456685 -1.880696827577
H -0.054121814783 0.473613111497 -0.477691362407
H 0.043558650626 -1.012202256187 -1.237247322791
Li 6.9471593e-05 -4.0097e-07 3.556435483793
