6
Coordinates from XML
H 0.692665679442 0.573837435084 -1.457536832305
N 2.4827192e-05 2.5693028e-05 -0.969116504767
H 0.19904644024 0.005838040411 0.035209262863
H -0.935844535085 0.380774663272 -1.133585641829
H 0.043973771495 -0.960614315304 -1.319987710942
Li -2.6763343e-05 -2.7696702e-05 2.490996514604
