6
Coordinates from XML
H 0.692665679442 0.573837435084 -1.468739862546
N 2.4827192e-05 2.5693028e-05 -0.980319535008
H 0.19904644024 0.005838040411 0.024006232622
H -0.935844535085 0.380774663272 -1.14478867207
H 0.043973771495 -0.960614315304 -1.331190741183
Li -2.6763343e-05 -2.7696702e-05 2.519793484363
