6
Coordinates from XML
H 0.692665679442 0.573837435084 -1.496747438148
N 2.4827192e-05 2.5693028e-05 -1.008327110611
H 0.19904644024 0.005838040411 -0.004001342981
H -0.935844535085 0.380774663272 -1.172796247672
H 0.043973771495 -0.960614315304 -1.359198316785
Li -2.6763343e-05 -2.7696702e-05 2.591785908761
