6
Coordinates from XML
H 0.692665679442 0.573837435084 -1.563965619594
N 2.4827192e-05 2.5693028e-05 -1.075545292057
H 0.19904644024 0.005838040411 -0.071219524426
H -0.935844535085 0.380774663272 -1.240014429118
H 0.043973771495 -0.960614315304 -1.426416498231
Li -2.6763343e-05 -2.7696702e-05 2.764567727315
