6
Coordinates from XML
H 0.692665679442 0.573837435084 -1.575168649835
N 2.4827192e-05 2.5693028e-05 -1.086748322298
H 0.19904644024 0.005838040411 -0.082422554667
H -0.935844535085 0.380774663272 -1.251217459359
H 0.043973771495 -0.960614315304 -1.437619528472
Li -2.6763343e-05 -2.7696702e-05 2.793364697074
