6
Coordinates from XML
H 0.692665679442 0.573837435084 -1.614379255678
N 2.4827192e-05 2.5693028e-05 -1.125958928141
H 0.19904644024 0.005838040411 -0.121633160511
H -0.935844535085 0.380774663272 -1.290428065203
H 0.043973771495 -0.960614315304 -1.476830134316
Li -2.6763343e-05 -2.7696702e-05 2.89415409123
