14
Coordinates from XML
C -1.238921267885 0.092803374372 -0.075761844451
C -2.684921267885 -0.014196625628 0.346238155549
O -3.406921267885 -0.721196625628 -0.485761844451
O -3.188921267885 0.690803374372 1.198238155549
H -1.153921267885 0.649803374372 -1.011761844451
H -0.651921267885 0.603803374372 0.690238155549
H -0.811921267885 -0.900196625628 -0.230761844451
C 4.027678732115 -0.089296625628 -0.410761844451
C 2.531678732115 -0.004296625628 -0.222761844451
O 1.907678732115 0.688703374372 -1.000761844451
O 2.043678732115 -0.648296625628 0.682238155549
H 4.412678732115 0.840703374372 -0.836761844451
H 4.523678732115 -0.263296625628 0.546238155549
H 4.270678732115 -0.911296625628 -1.086761844451
