14
Coordinates from XML
C -1.423373899464 0.07653232174 -0.134735528662
C -2.869373899464 -0.03046767826 0.287264471338
O -3.591373899464 -0.73746767826 -0.544735528662
O -3.373373899464 0.67453232174 1.139264471338
H -1.338373899464 0.63353232174 -1.070735528662
H -0.836373899464 0.58753232174 0.631264471338
H -0.996373899464 -0.91646767826 -0.289735528662
C 4.212131363694 -0.073025572996 -0.351788160241
C 2.716131363694 0.011974427004 -0.163788160241
O 2.092131363694 0.704974427004 -0.941788160241
O 2.228131363694 -0.632025572996 0.741211839759
H 4.597131363694 0.856974427004 -0.777788160241
H 4.708131363694 -0.247025572996 0.605211839759
H 4.455131363694 -0.895025572996 -1.027788160241
