14
Coordinates from XML
C -1.375552846832 0.080750742793 -0.119446054978
C -2.821552846832 -0.026249257207 0.302553945022
O -3.543552846832 -0.733249257207 -0.529446054978
O -3.325552846832 0.678750742793 1.154553945022
H -1.290552846832 0.637750742793 -1.055446054978
H -0.788552846832 0.591750742793 0.646553945022
H -0.948552846832 -0.912249257207 -0.274446054978
C 4.164310311063 -0.077243994049 -0.367077633925
C 2.668310311063 0.007756005951 -0.179077633925
O 2.044310311063 0.700756005951 -0.957077633925
O 2.180310311063 -0.636243994049 0.725922366075
H 4.549310311063 0.852756005951 -0.793077633925
H 4.660310311063 -0.251243994049 0.589922366075
H 4.407310311063 -0.899243994049 -1.043077633925
