14
Coordinates from XML
C -1.047637057358 0.109677058582 -0.014603949714
C -2.493637057358 0.002677058582 0.407396050286
O -3.215637057358 -0.704322941418 -0.424603949714
O -2.997637057358 0.707677058582 1.259396050286
H -0.962637057358 0.666677058582 -0.950603949714
H -0.460637057358 0.620677058582 0.751396050286
H -0.620637057358 -0.883322941418 -0.169603949714
C 3.836394521589 -0.106170309839 -0.471919739188
C 2.340394521589 -0.021170309839 -0.283919739188
O 1.716394521589 0.671829690161 -1.061919739188
O 1.852394521589 -0.665170309839 0.621080260812
H 4.221394521589 0.823829690161 -0.897919739188
H 4.332394521589 -0.280170309839 0.485080260812
H 4.079394521589 -0.928170309839 -1.147919739188
