14
Coordinates from XML
C 1.060857805989 -0.536393077642 -2.061049204329
C -0.081979744911 0.037854059099 -2.970117573732
O -0.191943532392 -0.473620874876 -4.150423186877
O -0.793617741196 0.972548515923 -2.428939478746
H 1.61209519525 -1.332795365622 -2.575799230134
H 1.748921822955 0.277141455673 -1.786795787456
H 0.623770758473 -0.924421178265 -1.129098054022
C 0.565397189953 0.21178223079 1.576198846022
C -0.039436407252 -0.013918822437 3.006400963317
O 0.710059418678 0.308467299108 4.006972389358
O -1.235590905673 -0.505750721291 3.022890203568
H 1.571837086868 0.643615132591 1.636910718883
H 0.602987715804 -0.749790401417 1.04285984467
H -0.095332206296 0.879030685942 1.003171792064
