14
Coordinates from XML
C 1.284798747612 -0.675880165095 -2.601489258408
C -0.101031358063 0.053289909995 -2.701632465122
O -0.717793542011 0.274914768431 -1.58928952626
O -0.47587865633 0.352671899869 -3.902805234955
H 1.546173928778 -0.885078477693 -1.556976963908
H 1.241500806995 -1.61606544052 -3.171280800305
H 2.060456541368 -0.047609656486 -3.063847339915
C 0.811961710411 -1.207076622743 2.730169000436
C -0.06297517327 0.095239319903 2.703685474334
O -0.360219788333 0.613680398172 3.848099940444
O -0.394220889986 0.507570560316 1.523340050654
H 1.06793329857 -1.489779469578 3.758587445979
H 0.259048777883 -2.024940147566 2.244502439087
H 1.729881815608 -1.040317247701 2.147281505417
