14
Coordinates from XML
C 0.206811807768 -1.418512290224 -2.350621250542
C -0.019328235895 0.109897453884 -2.624604966877
O -0.597091755917 0.416977411221 -3.737578999727
O 0.4056086917 0.901043889904 -1.693760178416
H -0.189907478679 -2.029444509851 -3.170659349333
H 1.283554243399 -1.609448415436 -2.229565113131
H -0.283571368146 -1.694915303463 -1.405491864906
C 1.361200606035 -0.511574180222 2.54937938977
C -0.107097061566 0.039780001845 2.597889876103
O -0.661949884408 0.303373307754 1.462338513493
O -0.602634589875 0.171938456678 3.785295786785
H 1.710970225404 -0.612424904788 1.514692385209
H 2.023082401338 0.171310411412 3.102612241795
H 1.399989627022 -1.487549291719 3.055454319131
