14
Coordinates from XML
C -1.032895874598 1.009498027137 -2.316114287698
C 0.08074081756 -0.080553644593 -2.132148494983
O 0.354781130896 -0.805074397325 -3.165004520085
O 0.604684085339 -0.13307099277 -0.950758857245
H -1.420825282336 1.008222309101 -3.342075300525
H -1.851250955415 0.814634498967 -1.607024284881
H -0.61713421361 1.99860994373 -2.073331054659
C -0.687085526104 -1.282137231994 2.171869211691
C 0.059207582647 0.097771319161 2.138079741021
O 1.331152563408 0.071041643793 2.357764682323
O -0.693446709642 1.120647137891 1.892737792663
H 0.011841833371 -2.104152389578 2.369045476908
H -1.46239752591 -1.255699841834 2.952047289032
H -1.195315522981 -1.444271733395 1.209809694681
