14
Coordinates from XML
C 0.056271558916 0.111476296584 -1.510359672187
C -0.009944363898 -0.006310435574 -3.073684487875
O -1.136655953125 0.294741003385 -3.627497641261
O 1.085040305322 -0.398691520608 -3.639371463283
H -0.898490285882 0.462585611353 -1.100190290729
H 0.307674078242 -0.870841780512 -1.083354480544
H 0.862502402586 0.806173269452 -1.231914375688
C 1.437479481194 0.223980747235 2.983147034381
C -0.11321605814 -0.014119169113 2.953238571059
O -0.780962404748 0.645472649067 2.066743543976
O -0.554600479588 -0.853726623898 3.832553764968
H 1.743090781842 0.932764110031 2.203843030654
H 1.725836681423 0.60930533191 3.972520853787
H 1.955528611743 -0.736052440726 2.841354168235
