14
Coordinates from XML
C 0.625601277779 -1.095952544434 -3.764202418661
C -0.052219097705 0.087547417398 -2.988231980452
O -0.784319153866 0.890226577783 -3.685767396267
O 0.20328610458 0.1279929656 -1.720936693196
H 0.354442691851 -1.077847604767 -4.826855741774
H 1.717964835112 -1.021586329024 -3.656049796771
H 0.315706707896 -2.050652337201 -3.314027450693
C -1.45021897765 -0.117575681693 3.040483174312
C 0.113849316926 0.008530213661 3.045998163867
O 0.684513037706 0.056091453624 4.203106987315
O 0.662981022115 0.05324346681 1.875779726473
H -1.845957183192 -0.165452030206 4.062337361861
H -1.881474766473 0.746241137016 2.51291856848
H -1.740213509072 -1.020517624032 2.483040028288
