14
Coordinates from XML
C -0.640760579414 1.306364980238 -2.916863817349
C 0.049270200658 -0.102862273373 -2.903491746243
O 0.22751288196 -0.646754995602 -1.746240590992
O 0.368008322248 -0.566731915771 -4.068046193478
H -0.896576268484 1.630253177709 -1.900624858516
H 0.037116660055 2.037277215191 -3.382412115606
H -1.548930888793 1.260643314446 -3.535959980298
C -0.582659511348 1.025238133986 2.057588506885
C 0.048296063139 -0.082921256749 2.971984793952
O 0.673372996106 -1.039476802157 2.371068577262
O -0.132517916599 0.087235228292 4.241358328889
H -0.378380766515 0.826483224581 0.998412632404
H -1.668975240746 1.060610600747 2.228329215746
H -0.174021124738 2.006508983111 2.340901108411
