14
Coordinates from XML
C -0.688389677827 0.768389207221 -3.156097263
C 0.058591438678 -0.061186056678 -2.053343058672
O 1.152352377855 -0.645265726562 -2.413006693504
O -0.513459741344 -0.068603206517 -0.893317830847
H -0.141595989885 0.743812385627 -4.106623167619
H -1.69936841249 0.357469302069 -3.295926782822
H -0.801268270042 1.808079210272 -2.814854004437
C -1.16251716664 0.871789904356 2.205588680887
C 0.087847008022 -0.072954551239 2.126278615986
O -0.046558383294 -1.251492315754 2.635988250445
O 1.12693708744 0.442101292927 1.553595998724
H -2.008664645747 0.367041206514 2.687615701199
H -0.896826208566 1.777746061161 2.770510995679
H -1.443547083868 1.188950281996 1.190416123625
