14
Coordinates from XML
C -0.249836899767 -0.205129235514 -1.711335458754
C 0.016269186693 0.021284721749 -3.241095901685
O -0.599845571538 1.012491934217 -3.793120221534
O 0.831921899189 -0.822419470839 -3.784998451663
H -0.93592008102 0.55264579368 -1.313649997345
H -0.67481895447 -1.20894091036 -1.56221188708
H 0.705389255151 -0.169206492754 -1.16691247058
C -1.329607628035 0.507111039204 3.433458874797
C 0.105141426824 -0.041085019042 3.112181777334
O 0.835472680645 -0.37320365571 4.123682372456
O 0.399844464186 -0.097688242182 1.854047328729
H -1.516969325718 0.513199167423 4.514174092429
H -1.426160889046 1.526830980452 3.031794619214
H -2.07955924107 -0.117607181608 2.926069908391
