14
Coordinates from XML
C 0.183572098699 -0.283790529577 -1.884815840811
C -0.012243912474 0.02798494056 -3.41016658344
O 0.212372354292 1.243181326502 -3.783884738418
O -0.383368365077 -0.979767212995 -4.131039896549
H 0.512121455217 0.608784274456 -1.338507876177
H -0.765122726444 -0.650469692947 -1.465280401423
H 0.925355790488 -1.088036300952 -1.770406337878
C -0.320328145798 1.41832749667 3.247831845088
C 0.025767150579 -0.111356966749 3.298093463153
O 0.152178116809 -0.711665482035 2.162104934534
O 0.145221015967 -0.606203402263 4.487132518512
H -0.391223494834 1.773161255736 2.212383292239
H -1.274186563659 1.591250122528 3.768156118159
H 0.454258209737 1.984231882302 3.786266655144
