14
Coordinates from XML
C -0.818358209381 0.442187896138 -1.531122637352
C 0.059900428234 -0.032636401985 -2.741678870419
O -0.468374832847 0.075161350442 -3.914762361123
O 1.228827214648 -0.486430952157 -2.424445880163
H -1.786623476702 0.827632109339 -1.873148927707
H -0.974255960915 -0.402311985944 -0.843371733874
H -0.278947553333 1.222978426611 -0.974753935675
C -1.408410821869 -0.351449441263 2.550048455533
C 0.111772802414 0.02181984522 2.659385230148
O 0.902212723024 -0.900883794307 3.096011739387
O 0.406092150101 1.228078449738 2.297069902746
H -1.58300855476 -1.389742472845 2.857538398331
H -1.995235589047 0.329706696811 3.184200230108
H -1.744934133429 -0.205548713694 1.5129328019
