14
Coordinates from XML
C -0.322006985914 1.21702881553 -3.479657368521
C 0.024289274392 -0.092482897576 -2.687507941085
O 0.086817039031 0.010576018407 -1.402093952695
O 0.212623165318 -1.141361240453 -3.420543181192
H -0.483301980588 2.060286020518 -2.79702418473
H 0.500309794544 1.449384086189 -4.172688107939
H -1.223966088433 1.047309055855 -4.086129809031
C -0.148682244213 1.345045637132 2.215216288278
C 0.008046380119 -0.10396985795 2.796622321422
O -0.514002313222 -0.319097065726 3.957658681455
O 0.652596928304 -0.930508086465 2.038766633639
H -0.71643661231 1.986092877967 2.900636061271
H 0.848796143671 1.775401622409 2.041101221022
H -0.657930787273 1.292996703185 1.241511676804
