14
Coordinates from XML
C -0.727443906327 1.118615602701 -2.339728667489
C 0.051927217059 -0.091021935935 -2.965508516323
O -0.598050136257 -1.201109795173 -3.075300902259
O 1.274393884121 0.162230571902 -3.303731092542
H -1.758364158396 0.838047936506 -2.09159146503
H -0.203829220407 1.456964968797 -1.433178706287
H -0.727740870854 1.957940409431 -3.050838800421
C -0.432645957749 1.307617696363 2.45080603429
C 0.028067467932 -0.104274733497 2.957309388624
O -0.903170034273 -0.909799682575 3.345569937691
O 1.305588080963 -0.304732790917 2.930593356692
H -1.524794568811 1.402668258111 2.486353956178
H 0.030617323811 2.085627378281 3.075764858378
H -0.076112762956 1.458649682442 1.421137514459
