14
Coordinates from XML
C -0.115617191857 -1.362141654081 -1.861622599424
C 0.010874456983 0.104663364817 -2.404508997633
O 0.523205346143 0.241767344007 -3.581598434322
O -0.415937306814 1.023891113484 -1.600887096343
H 0.249469326654 -2.088434541902 -2.598030996841
H 0.460475086475 -1.454144633443 -0.928810397725
H -1.168156943146 -1.570508824704 -1.618956090192
C -1.111825069479 -0.93613964652 2.291708010771
C 0.090887861633 0.068856193043 2.367257397593
O 1.192675552474 -0.386502616035 2.862769478544
O -0.160071310578 1.256551149366 1.920764082442
H -0.824840813518 -1.924401221501 2.671268215391
H -1.95272871783 -0.53969747481 2.880095743211
H -1.451539995241 -1.018859026518 1.248685904617
