14
Coordinates from XML
C 0.874873386571 1.160622647939 -3.208886337375
C -0.071258291548 -0.088690053188 -3.129543004243
O -0.830479037178 -0.171955865764 -2.088644043285
O 0.018026272077 -0.906523013348 -4.127607937924
H 0.736010527812 1.816675344701 -2.340900843134
H 1.92023511308 0.820933879247 -3.257009784684
H 0.667363174901 1.715569059168 -4.135772432456
C 0.163014538569 1.244792748549 3.875602708936
C -0.012899900633 -0.094461180087 3.07704415331
O -0.227993912057 0.014370449062 1.808694743326
O 0.076482799212 -1.171035590474 3.788348847332
H 0.091027508262 2.113611482811 3.209976141595
H -0.611029942242 1.306173200834 4.655072430482
H 1.139303351039 1.240275960297 4.382538201684
