14
Coordinates from XML
C -0.910502290209 -1.001456858002 -3.143857996875
C 0.073663241519 0.07957360136 -2.573740382571
O 0.92356187499 0.581746506905 -3.405794869262
O -0.077455643337 0.348443262323 -1.317624032896
H -0.736911697871 -1.168057495357 -4.213996953538
H -0.773230470613 -1.943331728363 -2.592030450324
H -1.947168255624 -0.672604061447 -2.978560220462
C 1.424175391076 -0.29709681484 2.62984128775
C -0.111652520576 0.024210451054 2.614446200082
O -0.674725321951 0.204173286036 3.762218991813
O -0.648685692024 0.07143465635 1.438724573562
H 1.815272895083 -0.306214169892 3.654559038587
H 1.594388476667 -1.275485150757 2.156270559515
H 1.958936545146 0.45472508434 2.03072679072
