14
Coordinates from XML
C 0.929295578877 -0.744442548655 -1.663701106523
C -0.069886747331 0.063543535333 -2.564276427708
O 0.046035311118 1.349226362884 -2.544233314959
O -0.909670455002 -0.658115881833 -3.232802497366
H 1.619822613173 -0.07263672701 -1.139357511545
H 0.359725437662 -1.338736161079 -0.933707667188
H 1.49509434462 -1.449501231248 -2.290524727108
C 1.252749485685 -0.67570343803 2.197966433474
C -0.095127611756 0.057986083591 2.525334358153
O 0.000879180332 1.229440349781 3.05946690833
O -1.164975024551 -0.60228331493 2.221316380757
H 2.115753829527 -0.054237591442 2.466463280231
H 1.29096232495 -1.626648820547 2.749988283938
H 1.283764658271 -0.917698971563 1.125296837858
