14
Coordinates from XML
C -0.362118423091 1.402530651152 -2.253311044235
C 0.030536367275 -0.110077863507 -2.395016510022
O 0.692929760472 -0.628163566502 -1.415403229148
O -0.356639964556 -0.675070488578 -3.492210165468
H -0.016782148685 1.811971888175 -1.296134162102
H 0.080830030219 1.971217564843 -3.084501351512
H -1.454684873549 1.503490513671 -2.332364810947
C -0.881395978081 -1.157410427182 2.368855335625
C 0.065919261703 0.093390573314 2.387115556876
O -0.117809918286 0.969606457063 1.456895530995
O 0.937098332969 0.105644451205 3.343072127088
H -1.602108308278 -1.094704227616 1.544398834454
H -0.274985793822 -2.069690995342 2.266403793958
H -1.414301399157 -1.223938568845 3.328922864028
