14
Coordinates from XML
C 1.450702925012 0.075510133289 -2.881134699
C -0.113521577964 -0.006254138957 -2.787544901873
O -0.610807084946 -0.218391423383 -1.6151435712
O -0.7373047399 0.148049960167 -3.910060339516
H 1.91219694186 -0.048175768686 -1.893809057303
H 1.814166191707 -0.706780069631 -3.564070975078
H 1.738961152648 1.046126990455 -3.311197428522
C -1.450118674278 -0.11705461004 2.816658648339
C 0.113946526902 0.006973130234 2.792996269924
O 0.715243482907 -0.476953197633 1.758067642937
O 0.632306271083 0.585748589589 3.827055378065
H -1.821441529339 -0.602011815507 1.905602832893
H -1.754121477703 -0.698473837891 3.699845741768
H -1.892857174398 0.885124808296 2.915465907758
