14
Coordinates from XML
C 0.427153255852 1.137707164729 -2.029929627997
C -0.034935759972 -0.092332227291 -2.887670601476
O -0.369505811108 -1.156064105371 -2.237011431478
O -0.026900514973 0.099055618038 -4.166835259902
H 0.381120192726 0.910886830193 -0.957772761851
H 1.455774221506 1.409141896158 -2.310549585585
H -0.214042347328 2.001843791458 -2.258577674887
C 0.985406470449 -1.065900255693 2.731104556659
C -0.07698411604 0.083380761399 2.843896965724
O -0.498756643175 0.364353241367 4.031323756695
O -0.416910612238 0.626054803167 1.72010385423
H 1.23761612527 -1.46869091144 3.719657453747
H 0.585694099401 -1.867319772326 2.092009693751
H 1.890901717643 -0.677273469475 2.24203255901
