14
Coordinates from XML
C -0.775460146384 -0.214218354341 -1.677621461507
C 0.056391172821 0.020531029111 -2.987262195356
O -0.518712753945 0.701117618051 -3.921541249725
O 1.23937509977 -0.502440310572 -2.984791908201
H -1.758573708256 0.267791417374 -1.742745628444
H -0.899442502737 -1.295432060478 -1.516095110773
H -0.218422709784 0.184238145573 -0.816758201494
C -1.057730245979 0.995848355609 2.808863428087
C 0.078750615318 -0.082582853382 2.896271216243
O -0.299857195245 -1.310695146487 3.019625601516
O 1.282881116845 0.385830826936 2.836150876492
H -2.049239377925 0.528660959112 2.850485904076
H -0.945434026266 1.708650730566 3.639398074142
H -0.949251245571 1.563311591892 1.872721546492
