14
Coordinates from XML
C -0.211558555874 1.321425861954 -3.691153988142
C 0.018358192607 -0.105674967442 -3.080609760788
O 0.322269203461 -1.046174775395 -3.911222902861
O -0.126115709446 -0.181273434497 -1.797500934822
H -0.058248086007 1.315482766005 -4.777223706035
H -1.234593636673 1.653821505886 -3.460074295494
H 0.47969209633 2.034786796167 -3.218467459981
C -0.365621091199 1.098720385117 4.001064627696
C 0.030685527771 -0.089301667281 3.055661322843
O 0.664985829406 -1.07299001076 3.600491895876
O -0.325323902993 0.052726247354 1.82033081948
H -0.04748878371 0.905174036221 5.032771222832
H 0.100778062931 2.02505691454 3.633834552285
H -1.455495205525 1.24378475399 3.965363306366
