14
Coordinates from XML
C -0.736316639944 0.762190875503 -4.156882231108
C 0.057251636402 -0.055213924214 -3.07783564906
O 0.355059344169 0.567264869917 -1.986666229074
O 0.329289120815 -1.275990925328 -3.407464556305
H -0.945397913457 1.780149112895 -3.8059792521
H -0.149045988911 0.800692525107 -5.086460775621
H -1.678836055204 0.243096564012 -4.385666164491
C 0.042525803526 -1.319870530519 3.770740207955
C -0.002287261723 0.101083193873 3.106567757178
O 0.305807593428 0.162329819448 1.854311236274
O -0.345337708955 1.06435487931 3.89864107863
H 0.324728128833 -2.08815370901 3.040541839069
H 0.765217167695 -1.309429793367 4.600254311614
H -0.944003239056 -1.552695665558 4.198170606002
