14
Coordinates from XML
C 1.399673441904 -0.391463672448 -3.268209373081
C -0.110233916473 0.030277758821 -3.200706215216
O -0.711173675953 0.20525900445 -4.329897497602
O -0.589189814602 0.158905512076 -2.006130037399
H 1.734069496159 -0.496498549676 -4.307552341571
H 2.010562947404 0.365342360719 -2.75387086078
H 1.535861437445 -1.342426488369 -2.732236992128
C 0.022544435922 1.429287192772 3.471314765206
C -0.002369939849 -0.11326336107 3.18467944852
O -0.017966221799 -0.891111195986 4.214984978335
O -0.002512594306 -0.436822422758 1.932375328462
H 0.005822908331 1.630751777895 4.549377501851
H 0.927481618196 1.866414004192 3.023548853282
H -0.844422285859 1.90304042562 2.987506519896
