14
Coordinates from XML
C -0.651588620583 1.091356520538 -2.431897391339
C 0.054174285131 -0.087059703869 -3.190499174242
O 0.989234465243 -0.706533231035 -2.551175319085
O -0.384173135292 -0.307312849138 -4.387284947417
H -0.242246785405 1.211612747273 -1.421420001889
H -0.516695854424 2.022111625283 -3.002847775904
H -1.732356340353 0.893445931162 -2.377893918718
C -1.270553879723 -0.702652198134 3.045083967266
C 0.100218414589 0.054941146719 3.141408330913
O 0.768353703161 0.18007668143 2.043794411003
O 0.412082134842 0.472780915269 4.325092006426
H -1.477829022869 -1.014055676149 2.013991468215
H -1.244546562811 -1.583801643138 3.703403600909
H -2.07516716059 -0.045969406987 3.407725692118
