14
Coordinates from XML
C 0.080828737701 -0.76328632675 -1.423929664464
C -0.012322238136 0.058392267746 -2.757500031973
O -1.127609898812 -0.015405249569 -3.403648113642
O 1.052926922873 0.72449311754 -3.064924784945
H -0.859381798183 -1.289249698352 -1.217887113928
H 0.905016631663 -1.487958252742 -1.501713853921
H 0.319875359593 -0.082636902614 -0.593437693085
C -1.302269390596 -0.485784005624 2.229743925461
C 0.103023567962 0.040610358153 2.688332429962
O 0.829355308802 0.60818404174 1.784384257216
O 0.380617222253 -0.157355526375 3.936013225489
H -1.476888991429 -0.271501202451 1.168293159785
H -1.358076359385 -1.570353873112 2.406037004669
H -2.084894534866 -0.013355648467 2.841669714629
