14
Coordinates from XML
C 0.797815974061 0.231830415373 -3.884439482644
C -0.057804145562 -0.020710063978 -2.593555963795
O 0.502991850704 -0.707614316917 -1.65521147432
O -1.244878995881 0.492454669589 -2.615266602459
H 1.794578228681 -0.216351227665 -3.791245731277
H 0.276145645547 -0.194871683664 -4.754077828183
H 0.887761827586 1.314880963246 -4.054895033227
C -0.741033803246 1.141357909713 3.204890655723
C 0.053128177326 -0.092948584649 2.649879873268
O -0.576609131978 -1.219708857801 2.624146797676
O 1.265761785318 0.159560704667 2.277435397616
H -1.762863318599 0.85909089061 3.486451704458
H -0.211866779315 1.549376296682 4.078955139433
H -0.767240577481 1.930930941748 2.439363730915
