14
Coordinates from XML
C 0.190402475346 -1.3250823872 -2.939970214146
C -0.018530702198 0.105489191987 -2.330007406922
O -0.658745140208 0.95600613132 -3.060463697423
O 0.482134170945 0.275087461679 -1.149529873216
H -0.271061362968 -1.402441701323 -3.932015331634
H 1.268130557781 -1.534401087731 -3.011896057515
H -0.245076052101 -2.075730969367 -2.263931015015
C -1.334533505518 0.114372088147 2.938245855227
C 0.10480662221 -0.003011417938 2.324434930543
O 0.601850469403 1.071816144302 1.810126551767
O 0.638025693991 -1.178876428278 2.401733021171
H -1.71802611944 1.138391818646 2.85220017376
H -2.008462628636 -0.581963302382 2.41726406484
H -1.304595048515 -0.187544245265 3.995645522784
