14
Coordinates from XML
C -0.956075003495 0.546598260305 -3.690966274864
C 0.079487524709 -0.041673974114 -2.66930646336
O 1.298284888823 -0.149811250673 -3.081203656492
O -0.410599502661 -0.358193194166 -1.514929408491
H -0.470687076073 0.806249512601 -4.639684694512
H -1.750681757623 -0.193471390893 -3.868117291438
H -1.42996034022 1.438696684057 -3.255378246429
C -1.116311358976 0.927537571782 2.843485351833
C 0.087789169758 -0.073082839494 2.737922805015
O 0.655967544948 -0.410739342824 3.846968071354
O 0.381175793158 -0.450785282867 1.536165238221
H -1.318822079573 1.19259075714 3.888388729978
H -0.884983626173 1.834972105764 2.26596001769
H -2.009479346472 0.470489433302 2.392373629792
