14
Coordinates from XML
C 0.773888477424 1.231895056599 -2.831201267298
C -0.060453262725 -0.096741681909 -2.802200926215
O -0.218915427242 -0.653141354296 -1.648021940942
O -0.499900815344 -0.491719567477 -3.952780960057
H 1.100554396071 1.514927898005 -1.823099763993
H 1.64957237472 1.095637295508 -3.483195898843
H 0.16239070519 2.035778818159 -3.26707419946
C 0.485517417482 -1.251308733995 3.37162102937
C -0.040308092243 0.099794647135 2.771396130794
O -0.763259228375 0.8338478907 3.549424069521
O 0.31231549586 0.32871107772 1.548199511772
H 0.16278660993 -1.372753836276 4.412862003244
H 0.109947145051 -2.08814477475 2.764053850891
H 1.583906404713 -1.271522047135 3.314376857264
