14
Coordinates from XML
C -0.438710808557 -1.057371473757 -2.091929619926
C 0.029840628566 0.086423748989 -3.058591288373
O -0.736297302024 1.122364126172 -3.140323713359
O 1.144318916934 -0.140494188406 -3.674547853653
H -1.37913486503 -0.79236427009 -1.593471368218
H -0.569341802395 -1.986490449802 -2.666524204662
H 0.344270906005 -1.242978877467 -1.341840713937
C 0.590306180138 -0.967065948784 2.077118499874
C -0.051822478537 0.074789302333 3.059183244929
O -1.298460115693 0.352649966514 2.870747484021
O 0.750484001724 0.545951197658 3.957663559678
H -0.147909921572 -1.335024495431 1.35411756778
H 1.430036629881 -0.494547153862 1.546021309875
H 0.99997251864 -1.80794237678 2.656121232577
