14
Coordinates from XML
C 0.904872464723 0.543505065092 -1.648483307609
C -0.070137831619 -0.048187579018 -2.726211231987
O -0.185028997986 -1.333771019075 -2.756131486066
O -0.655449249173 0.829402552866 -3.47467779822
H 1.352743258303 -0.252940471415 -1.041710605255
H 1.695768120316 1.118868511896 -2.152394441688
H 0.352272280827 1.241723684853 -1.002520741886
C 1.188921032067 0.735071863861 3.054182682518
C -0.095691641652 -0.052464647048 2.616233753354
O -1.079703037284 0.652888977128 2.167883643295
O -0.024655091232 -1.336234047113 2.757109698171
H 1.064924522699 1.81301733571 2.893729330824
H 1.390820686458 0.536389899327 4.117313658236
H 2.053498408745 0.367469121184 2.481890778109
