12
Coordinates from XML
N -0.006975723019 0.813986609276 -1.759151004842
C -0.332018197468 0.227186142624 -3.106745637007
H -0.477281655869 1.726304539272 -1.634582718208
H 1.011634884054 0.959863917024 -1.659798392179
H -0.318841890174 0.184068758508 -1.001073825942
H -0.00638442678 0.955404259632 -3.855899366457
H -1.421017016165 0.130495557053 -3.154624981599
C 0.320584854005 -1.13681236001 -3.394815797766
H 1.410103929426 -1.059998366359 -3.360937811199
H 0.033971810619 -1.490264783077 -4.388388161305
H 0.000931526578 -1.881826709393 -2.662090430267
K -1.530238e-06 -8.015013e-05 3.196297404993
