12
Coordinates from XML
N -0.423870823385 -0.749542392216 -2.214278829263
C -0.439064102534 0.33280612402 -3.260361782078
H -1.348363469197 -0.830415530141 -1.758425983159
H 0.278720097572 -0.54311297734 -1.484572317122
H -0.191646372253 -1.663803436644 -2.637287766566
H -0.721714151164 1.259961705002 -2.752363979364
H -1.22171734612 0.06754087585 -3.977751617884
C 0.894042863052 0.536460944714 -4.002465284169
H 1.688220187081 0.811549583319 -3.304103957771
H 0.796786239269 1.33602781792 -4.741042062846
H 1.190240084693 -0.376552056893 -4.52475405438
K 3.9581365e-05 7.7454676e-05 3.683889097395
