12
Coordinates from XML
N -1.082457938439 0.618254614934 -2.989468762747
C 0.228763027616 0.065999771317 -2.49782574553
H -1.551959512783 1.162027670613 -2.245890878793
H -1.715624314604 -0.145915634878 -3.279059627239
H -0.935542240125 1.241492497456 -3.801089569206
H 0.00355520859 -0.553980537561 -1.624626945856
H 0.832509854782 0.921680065589 -2.180239645735
C 1.011854434075 -0.763152874443 -3.531576593007
H 0.429266046374 -1.629094137099 -3.855361125444
H 1.946832578807 -1.124210949718 -3.096014164931
H 1.254933745941 -0.158981111538 -4.40907304528
K 0.000110157049 -6.1598539e-05 3.564793844095
