12
Coordinates from XML
N 0.568760958227 -1.105449981736 -2.278239225007
C -0.552442185626 -0.101008979858 -2.278928036665
H 0.209916151929 -2.053783750283 -2.075946362238
H 1.273030977251 -0.866964248197 -1.560014333625
H 1.039980002139 -1.128225082928 -3.19811526096
H -1.024326743203 -0.152786304445 -1.292918725411
H -1.271449780744 -0.430987041021 -3.035038138047
C -0.124641160279 1.348477526659 -2.571061953964
H 0.587488129109 1.701002006264 -1.820929772428
H -0.994482664429 2.009784028036 -2.553422155408
H 0.341545505255 1.423813033518 -3.556508882512
K -6.0788246e-05 0.000110248413 2.806317425986
