12
Coordinates from XML
N -0.08629805341 0.724428182406 -3.839969326719
C 0.271333758277 0.311974937732 -2.437122043967
H 0.230931637641 1.690128916307 -4.029221406125
H -1.109530253993 0.68717212078 -3.982540533358
H 0.359399773633 0.097272719369 -4.530452842997
H -0.203864762995 1.032631865896 -1.764507558418
H 1.358025075423 0.405306613048 -2.347953059888
C -0.157700225735 -1.115048004575 -2.05124325705
H -1.2422250431 -1.22686012725 -2.12475443336
H 0.139079674336 -1.333408565111 -1.022407968913
H 0.313665919535 -1.851888413649 -2.706217503376
Br 7.130479e-06 -4.8024823e-05 1.651275784522
