12
Coordinates from XML
N 1.23830655127 -0.03822046732 -2.52372297076
C -0.212687437736 0.09003887152 -2.144032733368
H 1.844029192675 0.059932850314 -1.691560161072
H 1.50426355807 0.692958312977 -3.2044308091
H 1.424339808779 -0.960949203399 -2.95115872127
H -0.330736645404 1.070017336903 -1.671510902279
H -0.415043993418 -0.688961787958 -1.402568152282
C -1.203583539723 -0.041422705031 -3.314592362117
H -1.024278530963 0.734289338297 -4.063071127995
H -2.229944315764 0.062753836443 -2.954047636445
H -1.108102489267 -1.018093268821 -3.795330412962
Br -8.5506648e-05 3.023794e-06 1.555368866838
