12
Coordinates from XML
N 0.175660097924 0.192648730305 -1.685243985249
C -0.102293594291 0.513099943841 -3.129560936346
H 0.160451985248 1.052054959038 -1.110597501554
H 1.104533023116 -0.248938951993 -1.580773381304
H -0.535515629931 -0.457972105602 -1.311533367131
H 0.663963587406 1.226271805351 -3.448631643789
H -1.080019918887 1.003593594492 -3.161609976333
C -0.102785666018 -0.70157124599 -4.075045327523
H 0.869125965047 -1.200955072067 -4.064871883986
H -0.312172894503 -0.382866749809 -5.099177216618
H -0.8682299742 -1.422974980997 -3.778763777489
Br -1.2457001e-05 -1.0802924e-05 1.695349399909
