12
Coordinates from XML
N -0.528202861317 -0.686364386027 -2.133844212816
C 0.398848926094 -0.331901717566 -3.265625945583
H -0.354843797773 -1.652204271699 -1.808069928636
H -1.514978058166 -0.619574288989 -2.43473039266
H -0.390104253649 -0.046350842934 -1.33381330509
H 0.223089462068 -1.063999305756 -4.059799743358
H 1.418793475483 -0.454375391452 -2.888434689752
C 0.223216548524 1.090659893435 -3.82673093251
H -0.787530751945 1.230998123829 -4.217620941317
H 0.93133944817 1.265737563999 -4.640470117917
H 0.403476684999 1.838401989936 -3.050522754881
Br 3.7881358e-05 4.5335222e-05 1.769085864061
