12
Coordinates from XML
N -0.450407347356 1.152771021689 -2.980350910688
C 0.317125916771 0.01823116964 -2.356082776733
H -0.334752062071 2.01960426612 -2.428759653294
H -1.459136029767 0.931004141803 -3.025123621877
H -0.116465801397 1.335057502972 -3.94159629909
H -0.062975618712 -0.097774431524 -1.336457447447
H 1.364452679385 0.332374703369 -2.311580859607
C 0.211971442203 -1.324070587652 -3.102095916262
H -0.826553696175 -1.660682167794 -3.149615431966
H 0.795814720356 -2.089943243132 -2.585542147769
H 0.595340495344 -1.232083159285 -4.121251241428
Br 3.2196297e-05 -7.8611598e-05 1.651217473751
