12
Coordinates from XML
N -0.004707088421 0.571743827315 -1.758617586729
C -0.085425934122 0.409646716045 -3.253009665458
H -0.127913658347 1.562871830682 -1.491195904794
H 0.913391693406 0.253961627597 -1.405307807994
H -0.740906942317 0.017297040005 -1.290283785614
H 0.695589149763 1.044344890068 -3.682828180107
H -1.063636688914 0.79252647123 -3.559712682038
C 0.08581287558 -1.033931574079 -3.759098655491
H 1.061642837092 -1.432419449832 -3.470891746493
H 0.013550242954 -1.063024602978 -4.849141499234
H -0.690916701353 -1.6834044791 -3.348018122432
Br -6.6951e-08 -3.7155372e-05 1.673241904849
