12
Coordinates from XML
N 1.00485598382 -0.67405575 -3.192986429743
C 0.002879371357 0.448223880767 -3.243285425174
H 1.742265529849 -0.537980288435 -3.904842850719
H 0.54581638519 -1.582571238442 -3.373543771191
H 1.457153346498 -0.719214311442 -2.26447912544
H -0.410404862603 0.458315559538 -4.2565300101
H 0.559179835341 1.37580101332 -3.07688114327
C -1.14193353628 0.342080215662 -2.219808994393
H -1.716605392251 -0.5743349344 -2.374842713279
H -1.820723053285 1.192297274655 -2.322946949587
H -0.75060939057 0.33947441837 -1.199529759328
Br -6.8585177e-05 4.8064424e-05 1.688081158387
