11
Coordinates from XML
O 0.196130455011 -0.051633565619 -1.785667380989
O 0.046601159485 -0.2048821651 -4.06844807491
C -0.237694369326 0.250905538675 -2.92899231825
H -1.023260907261 1.080468310496 -2.933125366152
C -0.780603423532 -0.861671985745 1.357559333
C 0.066197770833 0.064270098809 2.299791647943
O 1.286139177744 -0.297052404373 2.518901199222
O -0.561441158934 1.097873897717 2.75879998838
H -0.183448109728 -1.706926152714 0.994189305201
H -1.657920376929 -1.233213377057 1.90779330399
H -1.15268908039 -0.271817831197 0.506813671324
