11
Coordinates from XML
O -0.650281168965 0.763032950086 -3.261270158306
O 0.843526126205 -0.472942880829 -2.03740932051
C -0.188924780693 -0.283894458028 -2.733995007042
H -0.813727090519 -1.222299705467 -2.919262179566
C 1.176626501324 0.133498687227 2.887418800381
C -0.089119603624 -0.013970153768 1.971786515675
O 0.081215044009 -0.62264560587 0.846033307869
O -1.174697508679 0.499051872614 2.452707619776
H 2.05426251121 -0.335661873416 2.426191898331
H 1.373482777441 1.201438071023 3.064163090518
H 0.974141005047 -0.328817262517 3.864868250198
