11
Coordinates from XML
O 0.609276927094 -0.240688030668 -2.254162081216
O -0.294814435329 0.181800907747 -4.318394080122
C -0.307603043316 0.057698017738 -3.064854801042
H -1.324555521569 0.248333084334 -2.580321842041
C 0.969212473347 0.382067022225 1.432943289406
C -0.072363189209 -0.034493791111 2.530139703004
O 0.186141348059 -1.113173129907 3.190780506565
O -1.087125025446 0.758514018858 2.649944230939
H 1.807976301146 -0.323800271224 1.39670162969
H 0.468944456097 0.418431329423 0.453711440923
H 1.340097565756 1.394819362889 1.649555351048
