11
Coordinates from XML
O 0.799235620594 0.828241969552 -2.43538720794
O -1.00071766191 -0.546679335583 -2.079449818094
C 0.197086967412 -0.275693002774 -2.360085306595
H 0.848771133379 -1.186820148703 -2.584721304999
C -0.581450763688 -0.727912100857 2.865444979867
C 0.043559087684 0.062327338917 1.662479038718
O -0.219847803751 1.324810631812 1.602706739381
O 0.760135084871 -0.649078389024 0.854161757958
H -1.161454551768 -0.062232486494 3.516254559944
H -1.229319112769 -1.527436818871 2.476199180213
H 0.222820790566 -1.208841842983 3.441637387571
