11
Coordinates from XML
O 0.312871640984 1.04806278306 -3.404423156013
O -0.442177558678 -0.852791622256 -2.368283650018
C 0.126433677302 -0.191277248339 -3.277132259754
H 0.544537236346 -0.823294892251 -4.132146512091
C -0.688842514275 -0.927809996745 1.417382691904
C 0.055968046713 0.068077058755 2.374309514069
O 0.590134035489 -0.440794417471 3.43380774445
O 0.049545362492 1.303243669733 1.990540979507
H -0.630789158816 -1.955979550839 1.794985695916
H -1.741843282623 -0.622557321347 1.325210835975
H -0.241798567589 -0.870760525592 0.413868412927
