11
Coordinates from XML
O 1.036040414195 -0.06706525696 -3.183760090774
O -0.852938235261 0.273970535112 -1.929811889921
C -0.179446188322 -0.202508315179 -2.881810927702
H -0.772267649767 -0.871922634495 -3.592974371606
C -1.397221796702 -0.053636526066 1.630836519336
C 0.108321345595 0.000691081704 2.069734115325
O 0.397407347477 -0.53842835814 3.206659572935
O 0.900797083106 0.588718610477 1.233575083365
H -2.007160680729 -0.57767841964 2.376786587515
H -1.772272408312 0.971750139155 1.495172631274
H -1.474358227039 -0.562384644458 0.658535555804
