11
Coordinates from XML
O -0.227471387063 0.742305699737 -1.702673927743
O 0.553549335893 -0.711307678777 -3.294511424513
C -0.319249963247 -0.030140106006 -2.693547264827
H -1.374464248063 -0.129928661354 -3.120010999913
C -0.689302541444 1.194707763388 2.418729143706
C 0.05043006782 -0.097160677232 1.922630019564
O -0.280257830178 -1.20652319673 2.494277023854
O 0.921100171868 0.096862060379 0.986016522399
H -1.421440868628 0.955075441113 3.199521480165
H 0.051227402904 1.909445069852 2.807639736614
H -1.19284925909 1.675142509072 1.56680954725
