11
Coordinates from XML
O -0.28544021899 1.066259779749 -2.989083083944
O 0.32614461652 -0.894505742784 -1.970115766207
C -0.039728797314 -0.167957111406 -2.93198349687
H -0.171204222936 -0.723224893285 -3.921780528016
C 0.633218065078 0.860114584518 2.995428038138
C -0.051673640265 -0.071132061581 1.934322115936
O -0.576008799117 -1.163914728853 2.378977787622
O -0.01196412619 0.364994503546 0.717287658926
H 0.548992403376 0.437729017272 4.00418138915
H 1.693529071468 0.990538844429 2.732339560321
H 0.162925571781 1.854096380137 2.96429925297
