11
Coordinates from XML
O -0.0133801023 -0.162106848308 -1.869918291056
O -0.016822825189 -0.189659861593 -4.162550145305
C 0.029664907949 0.344355893799 -3.022553713881
H 0.127607569897 1.482567248135 -3.036279887122
C 0.61366918337 0.465155976282 3.536116320173
C -0.044697338288 -0.032541140005 2.20154004073
O 0.274544795251 0.608100672796 1.127071562399
O -0.845163476195 -1.040447625326 2.329346827634
H 1.28967325517 1.309079904724 3.352002902417
H -0.17674926882 0.766232130296 4.239733606009
H 1.167078112596 -0.364683818889 4.000064929332
