11
Coordinates from XML
O 0.422528770474 0.549920558605 -1.963889552896
O -0.357136437746 -0.83106271851 -3.619769739207
C -0.064204912833 0.275022099805 -3.092803614675
H -0.276176811731 1.184341633813 -3.751220017228
C -1.198217477551 -0.75768162698 2.533851543291
C 0.096568937569 0.057611954387 2.185904338309
O 1.00948015384 0.106791807857 3.097493300661
O 0.103448558373 0.597549377601 1.010584660223
H -1.129510572754 -1.198919323412 3.535687612299
H -2.071860296587 -0.09124160701 2.478251277693
H -1.341645054948 -1.549687715015 1.783985737233
