11
Coordinates from XML
O 0.931808194021 -0.653413566626 -2.158796549263
O -0.827520318193 0.809265677705 -2.308009331273
C -0.102135024755 -0.152767893302 -2.675750251377
H -0.439598917913 -0.657557533316 -3.64353731481
C -0.370986959511 -1.406189178405 1.862811257396
C 0.029736368135 0.110315498265 1.819485487129
O 0.179972770749 0.699874284091 2.958199430333
O 0.164441006656 0.606631992161 0.632691194037
H -0.452450855709 -1.763543010965 2.896614296981
H -1.331512074814 -1.542076652998 1.343762548577
H 0.381657569241 -1.996784577014 1.319794564263
