11
Coordinates from XML
O 0.171001063412 -0.53921275535 -3.962984946667
O -0.433461767055 0.303575668501 -1.918170969992
C 0.25662951549 0.230633314693 -2.969541140187
H 1.10523860288 0.99296011065 -3.032997684098
C -1.417080920315 0.070660434977 1.927290376922
C 0.112438020631 -0.006757926092 2.269081173617
O 0.897704015503 -0.385486122419 1.316851026191
O 0.418809726141 0.319801412028 3.482527288044
H -1.602228365653 -0.203702676339 0.881569496706
H -1.972130551998 -0.605262849785 2.594773024255
H -1.780950481273 1.091213408774 2.117591219856
