10
Coordinates from XML
C -1.265116150232 0.518818462289 -0.638958447728
C 0.096246096005 -0.045280922667 -1.178149935481
O 0.04864023051 -1.183191123693 -1.786191084608
O 1.126996691599 0.701522865241 -0.94838177425
H -2.095527809109 -0.155499787683 -0.88144190539
H -1.19653766921 0.650030936025 0.45125517523
H -1.446920225275 1.510996351279 -1.077905090766
O -0.028105117866 0.056712919278 3.740660431068
H -0.138478821711 -0.425802644713 2.915967793774
H 0.582837538505 -0.473705599461 4.260782374083
