10
Coordinates from XML
C 0.917593983728 0.725211999615 -0.186651841597
C -0.067530324617 -0.060862201837 -1.121456735128
O 0.439000695425 -1.028957882859 -1.809233632955
O -1.291846609311 0.355695592661 -1.099426420961
H 1.931353062035 0.310309431729 -0.243531038119
H 0.930372288854 1.784717068306 -0.482913869775
H 0.550668895404 0.678772368677 0.849375754935
O -0.018007955679 -0.026498698386 3.504876751297
H 0.794389779546 -0.187654006855 3.015836409042
H -0.507263512599 0.609270602323 2.974265814452
