10
Coordinates from XML
C -0.11582596966 -0.979063231121 -0.122409187856
C 0.013640153695 0.073539290779 -1.278916514182
O 0.998658399775 -0.087627836452 -2.097808567539
O -0.891360671202 0.997619791731 -1.281114368557
H 0.672027898466 -1.739155991092 -0.190468951326
H -0.053400164824 -0.462009675322 0.8467368818
H -1.104806955397 -1.457846076653 -0.175582839356
O -0.058213991204 -0.024659765488 3.92470225196
H 0.139813497336 0.538300524339 3.170393034291
H 0.78408019771 -0.14823467585 4.372353132502
