10
Coordinates from XML
C -1.381883574758 -0.08662333008 -1.476118430341
C 0.107618452004 0.00169482887 -0.990498870269
O 0.476047694244 -0.858158941263 -0.100705989588
O 0.807787865594 0.939229762513 -1.541631464423
H -1.910393341016 -0.910220094812 -0.980686650197
H -1.889783322418 0.865596090203 -1.262105610709
H -1.400855158541 -0.230597782573 -2.566556542559
O -0.001479039771 0.028194510583 3.430180541363
H 0.768436520787 -0.133872933059 2.876930377944
H -0.746876740427 -0.313796273463 2.927640849912
