10
Coordinates from XML
C -0.816995343887 1.042384589621 -1.56596980314
C 0.063251946583 -0.085231661623 -0.92107520741
O 0.132026061375 -1.202229459555 -1.564818963583
O 0.626908681092 0.234075011201 0.198429339343
H -1.25028143734 0.709492281397 -2.51703905668
H -1.619670655664 1.319940976424 -0.866569873905
H -0.199083544778 1.937947696567 -1.728128893351
O -0.007397719481 0.064070419537 3.168320686568
H -0.669333147 -0.549356205932 2.835648422982
H 0.785624356645 -0.466211071757 3.290954681724
