10
Coordinates from XML
C 0.051578638636 -1.45377524504 -0.950024485462
C -0.002321485064 0.114189243491 -0.978745234472
O 0.184725320971 0.718376271153 0.146773095463
O -0.232987633564 0.632213490342 -2.141242590803
H 0.265375490373 -1.822927511645 0.060472601587
H -0.911368007887 -1.855830045185 -1.298695044348
H 0.825541813825 -1.803828241624 -1.649015002975
O 0.065069391765 0.007129189942 3.217084485071
H -0.601355644305 0.693632457458 3.118532443038
H -0.431430683973 -0.808810662292 3.330448510793
