6
Coordinates from XML
H 0.104494426504 1.008275715906 -3.173037020856
N -5.70202e-07 -5.501931e-06 -3.028034326325
H -0.944893625497 -0.199772214766 -2.687809070799
H 0.154568280758 -0.490025259415 -3.913775427092
H 0.685838842015 -0.318401784486 -2.337529946973
Br -1.5e-11 -1.47e-10 0.691964882453
