6
Coordinates from XML
H 1.013648455623 0.110086059399 -3.269223027449
N -5.531249e-06 -6.00715e-07 -3.174552429244
H -0.248066267138 -0.987096560953 -3.286758875548
H -0.293269282261 0.322451040217 -2.247962173736
H -0.472236041572 0.554567809129 -3.894274885419
Br -1.47e-10 -1.6e-11 0.725447054177
