6
Coordinates from XML
H -0.980682978023 1.521445654016 -3.116271787955
N -0.930682978023 0.508445654016 -3.033271787955
H -1.832682978023 0.041445654016 -3.103271787955
H -0.198682978023 0.081445654016 -3.598271787955
H -0.622682978023 0.340445654016 -2.031271787955
Br 0.211555348606 -0.115563961454 0.689534747156
