6
Coordinates from XML
H -0.983593457678 1.523036574339 -3.125764101858
N -0.933593457678 0.510036574339 -3.042764101858
H -1.835593457678 0.043036574339 -3.112764101858
H -0.201593457678 0.083036574339 -3.607764101858
H -0.625593457678 0.342036574339 -2.040764101858
Br 0.21222044978 -0.115927517672 0.691703925391
