6
Coordinates from XML
H -0.989414416988 1.526218414986 -3.144748729664
N -0.939414416988 0.513218414986 -3.061748729664
H -1.841414416988 0.046218414986 -3.131748729664
H -0.207414416988 0.086218414986 -3.626748729664
H -0.631414416988 0.345218414986 -2.059748729664
Br 0.213550652129 -0.116654630107 0.696042281863
