6
Coordinates from XML
H -0.992324896643 1.527809335309 -3.154241043566
N -0.942324896643 0.514809335309 -3.071241043566
H -1.844324896643 0.047809335309 -3.141241043566
H -0.210324896643 0.087809335309 -3.636241043566
H -0.634324896643 0.346809335309 -2.069241043566
Br 0.214215753303 -0.117018186325 0.698211460098
