6
Coordinates from XML
H -0.998145855954 1.530991175956 -3.173225671372
N -0.948145855954 0.517991175956 -3.090225671372
H -1.850145855954 0.050991175956 -3.160225671372
H -0.216145855954 0.090991175956 -3.655225671372
H -0.640145855954 0.349991175956 -2.088225671372
Br 0.215545955651 -0.11774529876 0.702549816569
