6
Coordinates from XML
H -1.006877294919 1.535763936926 -3.20170261308
N -0.956877294919 0.522763936926 -3.11870261308
H -1.858877294919 0.055763936926 -3.18870261308
H -0.224877294919 0.095763936926 -3.68370261308
H -0.648877294919 0.354763936926 -2.11670261308
Br 0.217541259174 -0.118835967414 0.709057351276
