6
Coordinates from XML
H -1.021429693195 1.543718538543 -3.249164182593
N -0.971429693195 0.530718538543 -3.166164182593
H -1.873429693195 0.063718538543 -3.236164182593
H -0.239429693195 0.103718538543 -3.731164182593
H -0.663429693195 0.362718538543 -2.164164182593
Br 0.220866765046 -0.120653748502 0.719903242454
