6
Coordinates from XML
H -1.035982091471 1.55167314016 -3.296625752107
N -0.985982091471 0.53867314016 -3.213625752107
H -1.887982091471 0.07167314016 -3.283625752107
H -0.253982091471 0.11167314016 -3.778625752107
H -0.677982091471 0.37067314016 -2.211625752107
Br 0.224192270917 -0.122471529591 0.730749133632
