6
Coordinates from XML
H -1.041803050781 1.554854980807 -3.315610379912
N -0.991803050781 0.541854980807 -3.232610379912
H -1.893803050781 0.074854980807 -3.302610379912
H -0.259803050781 0.114854980807 -3.797610379912
H -0.683803050781 0.373854980807 -2.230610379912
Br 0.225522473265 -0.123198642027 0.735087490104
