6
Coordinates from XML
H -1.044713530436 1.55644590113 -3.325102693815
N -0.994713530436 0.54344590113 -3.242102693815
H -1.896713530436 0.07644590113 -3.312102693815
H -0.262713530436 0.11644590113 -3.807102693815
H -0.686713530436 0.37544590113 -2.240102693815
Br 0.22618757444 -0.123562198244 0.737256668339
