6
Coordinates from XML
H -1.047624010091 1.558036821454 -3.334595007718
N -0.997624010091 0.545036821454 -3.251595007718
H -1.899624010091 0.078036821454 -3.321595007718
H -0.265624010091 0.118036821454 -3.816595007718
H -0.689624010091 0.377036821454 -2.249595007718
Br 0.226852675614 -0.123925754462 0.739425846575
