6
Coordinates from XML
H -1.053444969402 1.5612186621 -3.353579635523
N -1.003444969402 0.5482186621 -3.270579635523
H -1.905444969402 0.0812186621 -3.340579635523
H -0.271444969402 0.1212186621 -3.835579635523
H -0.695444969402 0.3802186621 -2.268579635523
Br 0.228182877962 -0.124652866897 0.743764203046
