6
Coordinates from XML
H -1.059265928712 1.564400502747 -3.372564263328
N -1.009265928712 0.551400502747 -3.289564263328
H -1.911265928712 0.084400502747 -3.359564263328
H -0.277265928712 0.124400502747 -3.854564263328
H -0.701265928712 0.383400502747 -2.287564263328
Br 0.229513080311 -0.125379979333 0.748102559517
