6
Coordinates from XML
H -1.062176408367 1.56599142307 -3.382056577231
N -1.012176408367 0.55299142307 -3.299056577231
H -1.914176408367 0.08599142307 -3.369056577231
H -0.280176408367 0.12599142307 -3.864056577231
H -0.704176408367 0.38499142307 -2.297056577231
Br 0.230178181485 -0.125743535551 0.750271737753
