6
Coordinates from XML
H -1.073818326988 1.572355104364 -3.420025832842
N -1.023818326988 0.559355104364 -3.337025832842
H -1.925818326988 0.092355104364 -3.407025832842
H -0.291818326988 0.132355104364 -3.902025832842
H -0.715818326988 0.391355104364 -2.335025832842
Br 0.232838586182 -0.127197760422 0.758948450695
