6
Coordinates from XML
H -0.958923677744 1.509551630646 -3.045305441159
N -0.908923677744 0.496551630646 -2.962305441159
H -1.810923677744 0.029551630646 -3.032305441159
H -0.176923677744 0.069551630646 -3.527305441159
H -0.600923677744 0.328551630646 -1.960305441159
Br 0.206582925541 -0.112845945921 0.67331755749
