6
Coordinates from XML
H -0.961601067037 1.511015139601 -3.054037548104
N -0.911601067037 0.498015139601 -2.971037548104
H -1.813601067037 0.031015139601 -3.041037548104
H -0.179601067037 0.071015139601 -3.536037548104
H -0.603601067037 0.330015139601 -1.969037548104
Br 0.207194761037 -0.113180386165 0.675313013659
