6
Coordinates from XML
H -0.966955845623 1.513942157512 -3.071501761994
N -0.916955845623 0.500942157512 -2.988501761994
H -1.818955845623 0.033942157512 -3.058501761994
H -0.184955845623 0.073942157512 -3.553501761994
H -0.608955845623 0.332942157512 -1.986501761994
Br 0.208418432029 -0.113849266652 0.679303925997
