6
Coordinates from XML
H -0.974988013503 1.518332684379 -3.09769808283
N -0.924988013503 0.505332684379 -3.01469808283
H -1.826988013503 0.038332684379 -3.08469808283
H -0.192988013503 0.078332684379 -3.57969808283
H -0.616988013503 0.337332684379 -2.01269808283
Br 0.210253938516 -0.114852587383 0.685290294504
