6
Coordinates from XML
H -0.983020181382 1.522723211245 -3.123894403665
N -0.933020181382 0.509723211245 -3.040894403665
H -1.835020181382 0.042723211245 -3.110894403665
H -0.201020181382 0.082723211245 -3.605894403665
H -0.625020181382 0.341723211245 -2.038894403665
Br 0.212089445003 -0.115855908114 0.691276663012
