6
Coordinates from XML
H -0.985697570675 1.524186720201 -3.13262651061
N -0.935697570675 0.511186720201 -3.04962651061
H -1.837697570675 0.044186720201 -3.11962651061
H -0.203697570675 0.084186720201 -3.61462651061
H -0.627697570675 0.343186720201 -2.04762651061
Br 0.212701280499 -0.116190348357 0.693272119181
