6
Coordinates from XML
H -0.991052349262 1.527113738112 -3.150090724501
N -0.941052349262 0.514113738112 -3.067090724501
H -1.843052349262 0.047113738112 -3.137090724501
H -0.209052349262 0.087113738112 -3.632090724501
H -0.633052349262 0.346113738112 -2.065090724501
Br 0.213924951491 -0.116859228844 0.697263031519
