6
Coordinates from XML
H -1.001761906434 1.532967773934 -3.185019152281
N -0.951761906434 0.519967773934 -3.102019152281
H -1.853761906434 0.052967773934 -3.172019152281
H -0.219761906434 0.092967773934 -3.667019152281
H -0.643761906434 0.351967773934 -2.100019152281
Br 0.216372293474 -0.118196989819 0.705244856196
