6
Coordinates from XML
H -1.02318102078 1.544675845578 -3.254876007842
N -0.97318102078 0.531675845578 -3.171876007842
H -1.87518102078 0.064675845578 -3.241876007842
H -0.24118102078 0.104675845578 -3.736876007842
H -0.66518102078 0.363675845578 -2.169876007842
Br 0.22126697744 -0.120872511768 0.721208505548
