6
Coordinates from XML
H -1.025858410073 1.546139354533 -3.263608114787
N -0.975858410073 0.533139354533 -3.180608114787
H -1.877858410073 0.066139354533 -3.250608114787
H -0.243858410073 0.106139354533 -3.745608114787
H -0.667858410073 0.365139354533 -2.178608114787
Br 0.221878812936 -0.121206952011 0.723203961718
