6
Coordinates from XML
H -1.028535799366 1.547602863489 -3.272340221732
N -0.978535799366 0.534602863489 -3.189340221732
H -1.880535799366 0.067602863489 -3.259340221732
H -0.246535799366 0.107602863489 -3.754340221732
H -0.670535799366 0.366602863489 -2.187340221732
Br 0.222490648432 -0.121541392255 0.725199417887
