6
Coordinates from XML
H -1.031213188659 1.549066372444 -3.281072328677
N -0.981213188659 0.536066372444 -3.198072328677
H -1.883213188659 0.069066372444 -3.268072328677
H -0.249213188659 0.109066372444 -3.763072328677
H -0.673213188659 0.368066372444 -2.196072328677
Br 0.223102483928 -0.121875832498 0.727194874056
