6
Coordinates from XML
H -1.036567967245 1.551993390355 -3.298536542568
N -0.986567967245 0.538993390355 -3.215536542568
H -1.888567967245 0.071993390355 -3.285536542568
H -0.254567967245 0.111993390355 -3.780536542568
H -0.678567967245 0.370993390355 -2.213536542568
Br 0.224326154919 -0.122544712986 0.731185786394
