6
Coordinates from XML
H -1.055309692297 1.562237953043 -3.359661291184
N -1.005309692297 0.549237953043 -3.276661291184
H -1.907309692297 0.082237953043 -3.346661291184
H -0.273309692297 0.122237953043 -3.841661291184
H -0.697309692297 0.381237953043 -2.274661291184
Br 0.22860900339 -0.124885794691 0.745153979578
