6
Coordinates from XML
H -1.063341860177 1.56662847991 -3.385857612019
N -1.013341860177 0.55362847991 -3.302857612019
H -1.915341860177 0.08662847991 -3.372857612019
H -0.281341860177 0.12662847991 -3.867857612019
H -0.705341860177 0.38562847991 -2.300857612019
Br 0.230444509877 -0.125889115421 0.751140348085
