6
Coordinates from XML
H -1.071374028056 1.571019006776 -3.412053932854
N -1.021374028056 0.558019006776 -3.329053932854
H -1.923374028056 0.091019006776 -3.399053932854
H -0.289374028056 0.131019006776 -3.894053932854
H -0.713374028056 0.390019006776 -2.327053932854
Br 0.232280016365 -0.126892436152 0.757126716593
