6
Coordinates from XML
H 0.482937175593 0.335397212199 -2.059908844903
N 9.659079e-05 1.2384551e-05 -2.897732017732
H -0.989966333733 0.255882676099 -2.846551623465
H 0.420255001043 0.426955573775 -3.727827049705
H 0.086602812895 -1.018257431259 -2.957016032302
Br -1.4950682e-05 -1.916927e-06 0.662192886379
