6
Coordinates from XML
H 0.482937175593 0.335397212199 -2.206426673172
N 9.659079e-05 1.2384551e-05 -3.044249846002
H -0.989966333733 0.255882676099 -2.993069451734
H 0.420255001043 0.426955573775 -3.874344877974
H 0.086602812895 -1.018257431259 -3.103533860571
Br -1.4950682e-05 -1.916927e-06 0.695675058109
