6
Coordinates from XML
H 0.482937175593 0.335397212199 -2.483182571015
N 9.659079e-05 1.2384551e-05 -3.321005743844
H -0.989966333733 0.255882676099 -3.269825349576
H 0.420255001043 0.426955573775 -4.151100775817
H 0.086602812895 -1.018257431259 -3.380289758413
Br -1.4950682e-05 -1.916927e-06 0.758919160267
