6
Coordinates from XML
H 0.482937175593 0.335397212199 -2.759938468857
N 9.659079e-05 1.2384551e-05 -3.597761641686
H -0.989966333733 0.255882676099 -3.546581247419
H 0.420255001043 0.426955573775 -4.427856673659
H 0.086602812895 -1.018257431259 -3.657045656255
Br -1.4950682e-05 -1.916927e-06 0.822163262425
