6
Coordinates from XML
H 0.482937175593 0.335397212199 -3.101813401485
N 9.659079e-05 1.2384551e-05 -3.939636574315
H -0.989966333733 0.255882676099 -3.888456180047
H 0.420255001043 0.426955573775 -4.769731606287
H 0.086602812895 -1.018257431259 -3.998920588884
Br -1.4950682e-05 -1.916927e-06 0.900288329796
