6
Coordinates from XML
H 0.482937175593 0.335397212199 -3.65532519717
N 9.659079e-05 1.2384551e-05 -4.493148369999
H -0.989966333733 0.255882676099 -4.441967975732
H 0.420255001043 0.426955573775 -5.323243401972
H 0.086602812895 -1.018257431259 -4.552432384568
Br -1.4950682e-05 -1.916927e-06 1.026776534112
