6
Coordinates from XML
H -0.306832040024 -0.516122533201 -3.368646504028
N 2.2125657e-05 -5.4639038e-05 -2.539743535342
H -0.811123616569 0.219936369714 -1.954969925895
H 0.659989740843 -0.572427690648 -2.006167696935
H 0.457926666635 0.868710779342 -2.828605817088
Br -3.424692e-06 8.457234e-06 0.580373304142
