6
Coordinates from XML
H -0.984167633937 1.523350429369 -3.127636735213
N -0.934167633937 0.510350429369 -3.044636735213
H -1.836167633937 0.043350429369 -3.114636735213
H -0.202167633937 0.083350429369 -3.609636735213
H -0.626167633937 0.342350429369 -2.042636735213
Br 0.212351660216 -0.115999239647 0.692131858513
