6
Coordinates from XML
H -1.017826242193 1.541748827667 -3.237411793952
N -0.967826242193 0.528748827667 -3.154411793952
H -1.869826242193 0.061748827667 -3.224411793952
H -0.235826242193 0.101748827667 -3.719411793952
H -0.659826242193 0.360748827667 -2.152411793952
Br 0.220043306449 -0.12020363128 0.71721759321
