6
Coordinates from XML
H -1.026240894258 1.546348427241 -3.264855558637
N -0.976240894258 0.533348427241 -3.181855558637
H -1.878240894258 0.066348427241 -3.251855558637
H -0.244240894258 0.106348427241 -3.746855558637
H -0.668240894258 0.365348427241 -2.179855558637
Br 0.221966218007 -0.121254729189 0.723489026885
