6
Coordinates from XML
H -1.034655546322 1.550948026815 -3.292299323321
N -0.984655546322 0.537948026815 -3.209299323321
H -1.886655546322 0.070948026815 -3.279299323321
H -0.252655546322 0.110948026815 -3.774299323321
H -0.676655546322 0.369948026815 -2.207299323321
Br 0.223889129565 -0.122305827097 0.729760460559
