6
Coordinates from XML
H -1.043070198386 1.55554762639 -3.319743088006
N -0.993070198386 0.54254762639 -3.236743088006
H -1.895070198386 0.07554762639 -3.306743088006
H -0.261070198386 0.11554762639 -3.801743088006
H -0.685070198386 0.37454762639 -2.234743088006
Br 0.225812041124 -0.123356925006 0.736031894233
