6
Coordinates from XML
H -1.05148485045 1.560147225964 -3.347186852691
N -1.00148485045 0.547147225964 -3.264186852691
H -1.90348485045 0.080147225964 -3.334186852691
H -0.26948485045 0.120147225964 -3.829186852691
H -0.69348485045 0.379147225964 -2.262186852691
Br 0.227734952682 -0.124408022914 0.742303327908
