6
Coordinates from XML
H -1.059899502514 1.564746825539 -3.374630617375
N -1.009899502514 0.551746825539 -3.291630617375
H -1.911899502514 0.084746825539 -3.361630617375
H -0.277899502514 0.124746825539 -3.856630617375
H -0.701899502514 0.383746825539 -2.289630617375
Br 0.22965786424 -0.125459120823 0.748574761582
