6
Coordinates from XML
H -1.076728806643 1.573946024687 -3.429518146745
N -1.026728806643 0.560946024687 -3.346518146745
H -1.928728806643 0.093946024687 -3.416518146745
H -0.294728806643 0.133946024687 -3.911518146745
H -0.718728806643 0.392946024687 -2.344518146745
Br 0.233503687357 -0.127561316639 0.761117628931
