6
Coordinates from XML
H -0.605901186672 0.116207121622 -3.747152686385
N -3.5472831e-05 6.0079845e-05 -2.930450608907
H -0.23631154343 -0.873580611902 -2.451661309157
H 0.977674085736 -0.029995133126 -3.232198917763
H -0.135398429719 0.787262046649 -2.290246522698
Br 5.490617e-06 -9.299382e-06 0.669657991018
