6
Coordinates from XML
H -0.605901186672 0.116207121622 -3.991349066834
N -3.5472831e-05 6.0079845e-05 -3.174646989356
H -0.23631154343 -0.873580611902 -2.695857689606
H 0.977674085736 -0.029995133126 -3.476395298212
H -0.135398429719 0.787262046649 -2.534442903147
Br 5.490617e-06 -9.299382e-06 0.725461610569
