6
Coordinates from XML
H -0.605901186672 0.116207121622 -4.251825205979
N -3.5472831e-05 6.0079845e-05 -3.435123128501
H -0.23631154343 -0.873580611902 -2.956333828751
H 0.977674085736 -0.029995133126 -3.736871437357
H -0.135398429719 0.787262046649 -2.794919042293
Br 5.490617e-06 -9.299382e-06 0.784985471424
