6
Coordinates from XML
H -0.605901186672 0.116207121622 -4.382063275552
N -3.5472831e-05 6.0079845e-05 -3.565361198074
H -0.23631154343 -0.873580611902 -3.086571898324
H 0.977674085736 -0.029995133126 -3.86710950693
H -0.135398429719 0.787262046649 -2.925157111866
Br 5.490617e-06 -9.299382e-06 0.814747401851
