6
Coordinates from XML
H -0.691388282549 -0.437873577713 -3.268438222593
N -0.000106622176 -4.4121397e-05 -2.653620595087
H 0.871195949569 0.148062775053 -3.170544002433
H -0.358294924952 0.90039214242 -2.323791831644
H 0.178676396995 -0.610503071994 -1.851593263677
Br 1.6503378e-05 6.829274e-06 0.606402416913
