6
Coordinates from XML
H -0.691388282549 -0.437873577713 -3.561473879132
N -0.000106622176 -4.4121397e-05 -2.946656251626
H 0.871195949569 0.148062775053 -3.463579658972
H -0.358294924952 0.90039214242 -2.616827488183
H 0.178676396995 -0.610503071994 -2.144628920216
Br 1.6503378e-05 6.829274e-06 0.673366760374
