6
Coordinates from XML
H -0.691388282549 -0.437873577713 -3.85450953567
N -0.000106622176 -4.4121397e-05 -3.239691908164
H 0.871195949569 0.148062775053 -3.756615315511
H -0.358294924952 0.90039214242 -2.909863144722
H 0.178676396995 -0.610503071994 -2.437664576755
Br 1.6503378e-05 6.829274e-06 0.740331103836
