6
Coordinates from XML
H -0.988767643732 1.525864877136 -3.142639326574
N -0.938767643732 0.512864877136 -3.059639326574
H -1.840767643732 0.045864877136 -3.129639326574
H -0.206767643732 0.085864877136 -3.624639326574
H -0.630767643732 0.344864877136 -2.057639326574
Br 0.213402851868 -0.116573839837 0.695560242255
