6
Coordinates from XML
H -1.013899404563 1.539602347865 -3.224604703766
N -0.963899404563 0.526602347865 -3.141604703766
H -1.865899404563 0.059602347865 -3.211604703766
H -0.231899404563 0.099602347865 -3.706604703766
H -0.655899404563 0.358602347865 -2.139604703766
Br 0.219145947722 -0.119713118923 0.714290924162
