6
Coordinates from XML
H -1.026465284979 1.54647108323 -3.265587392361
N -0.976465284979 0.53347108323 -3.182587392361
H -1.878465284979 0.06647108323 -3.252587392361
H -0.244465284979 0.10647108323 -3.747587392361
H -0.668465284979 0.36547108323 -2.180587392361
Br 0.222017495649 -0.121282758466 0.723656265116
