6
Coordinates from XML
H -1.051597045811 1.560208553959 -3.347552769553
N -1.001597045811 0.547208553959 -3.264552769553
H -1.903597045811 0.080208553959 -3.334552769553
H -0.269597045811 0.120208553959 -3.829552769553
H -0.693597045811 0.379208553959 -2.262552769553
Br 0.227760591503 -0.124422037553 0.742386947023
