6
Coordinates from XML
H 0.982660489141 -0.255698894245 -2.768287646929
N 0.000111780714 1.37266e-07 -2.897831935615
H -0.5524463977 -0.360295162475 -2.114773579029
H -0.085310156814 1.019406688281 -2.935043694136
H -0.345102224517 -0.40341287506 -3.773021384086
Br -1.7301835e-05 -2.1247e-08 0.662208352041
