6
Coordinates from XML
H -0.865831182696 0.432550582315 -2.35297464622
N -0.000116370082 1.2714754e-05 -2.686163088734
H 0.795140877513 0.386182800639 -2.169682490567
H -0.044687135551 -1.011764979422 -2.537197713328
H 0.11558387179 0.193009041529 -3.684780738547
Br 1.8012195e-05 -1.968037e-06 0.613840264521
