6
Coordinates from XML
H -0.865831182696 0.432550582315 -2.564611509276
N -0.000116370082 1.2714754e-05 -2.897799951789
H 0.795140877513 0.386182800639 -2.381319353622
H -0.044687135551 -1.011764979422 -2.748834576384
H 0.11558387179 0.193009041529 -3.896417601602
Br 1.8012195e-05 -1.968037e-06 0.662203401465
