6
Coordinates from XML
H -0.865831182696 0.432550582315 -2.678569820152
N -0.000116370082 1.2714754e-05 -3.011758262666
H 0.795140877513 0.386182800639 -2.495277664499
H -0.044687135551 -1.011764979422 -2.86279288726
H 0.11558387179 0.193009041529 -4.010375912479
Br 1.8012195e-05 -1.968037e-06 0.688245090589
