6
Coordinates from XML
H -0.865831182696 0.432550582315 -3.427438720196
N -0.000116370082 1.2714754e-05 -3.760627162709
H 0.795140877513 0.386182800639 -3.244146564542
H -0.044687135551 -1.011764979422 -3.611661787304
H 0.11558387179 0.193009041529 -4.759244812522
Br 1.8012195e-05 -1.968037e-06 0.859376190545
