6
Coordinates from XML
H 0.379583406436 0.941758938536 -2.507772517713
N 4.5763271e-05 9.916547e-05 -2.637363146574
H -0.2579762175 -0.392114752498 -1.727469453135
H -0.828647264265 0.045510244445 -3.236593518513
H 0.706958895009 -0.595330341959 -3.077373219748
Br -7.08341e-06 -1.5349201e-05 0.602685628863
