6
Coordinates from XML
H 0.379583406436 0.941758938536 -2.670570104679
N 4.5763271e-05 9.916547e-05 -2.80016073354
H -0.2579762175 -0.392114752498 -1.890267040101
H -0.828647264265 0.045510244445 -3.399391105479
H 0.706958895009 -0.595330341959 -3.240170806714
Br -7.08341e-06 -1.5349201e-05 0.639888041897
