6
Coordinates from XML
H 0.379583406436 0.941758938536 -2.719409380769
N 4.5763271e-05 9.916547e-05 -2.84900000963
H -0.2579762175 -0.392114752498 -1.939106316191
H -0.828647264265 0.045510244445 -3.448230381569
H 0.706958895009 -0.595330341959 -3.289010082804
Br -7.08341e-06 -1.5349201e-05 0.651048765807
