6
Coordinates from XML
H 0.379583406436 0.941758938536 -2.817087932949
N 4.5763271e-05 9.916547e-05 -2.946678561809
H -0.2579762175 -0.392114752498 -2.036784868371
H -0.828647264265 0.045510244445 -3.545908933749
H 0.706958895009 -0.595330341959 -3.386688634984
Br -7.08341e-06 -1.5349201e-05 0.673370213628
