6
Coordinates from XML
H -0.935362651964 1.496672751838 -2.968462900042
N -0.885362651964 0.483672751838 -2.885462900042
H -1.787362651964 0.016672751838 -2.955462900042
H -0.153362651964 0.056672751838 -3.450462900042
H -0.577362651964 0.315672751838 -1.883462900042
Br 0.201198773178 -0.109902871778 0.655757543201
