6
Coordinates from XML
H -0.911801626184 1.483793873029 -2.891620358925
N -0.861801626184 0.470793873029 -2.808620358925
H -1.763801626184 0.003793873029 -2.878620358925
H -0.129801626184 0.043793873029 -3.373620358925
H -0.553801626184 0.302793873029 -1.806620358925
Br 0.195814620815 -0.106959797634 0.638197528913
