6
Coordinates from XML
H -0.925265069487 1.491153232348 -2.93553038242
N -0.875265069487 0.478153232348 -2.85253038242
H -1.777265069487 0.011153232348 -2.92253038242
H -0.143265069487 0.051153232348 -3.41753038242
H -0.567265069487 0.310153232348 -1.85053038242
Br 0.198891279308 -0.108641554288 0.648231822792
