6
Coordinates from XML
H -0.965655399395 1.513231310305 -3.067260452907
N -0.915655399395 0.500231310305 -2.984260452907
H -1.817655399395 0.033231310305 -3.054260452907
H -0.183655399395 0.073231310305 -3.549260452907
H -0.607655399395 0.332231310305 -1.982260452907
Br 0.208121254788 -0.113686824248 0.678334704429
