6
Coordinates from XML
H -0.985850564349 1.524270349284 -3.13312548815
N -0.935850564349 0.511270349284 -3.05012548815
H -1.837850564349 0.044270349284 -3.12012548815
H -0.203850564349 0.084270349284 -3.61512548815
H -0.627850564349 0.343270349284 -2.04812548815
Br 0.212736242528 -0.116209459228 0.693386145248
