6
Coordinates from XML
H -1.006045729303 1.535309388262 -3.198990523393
N -0.956045729303 0.522309388262 -3.115990523393
H -1.858045729303 0.055309388262 -3.185990523393
H -0.224045729303 0.095309388262 -3.680990523393
H -0.648045729303 0.354309388262 -2.113990523393
Br 0.217351230267 -0.118732094209 0.708437586066
