6
Coordinates from XML
H 0.110053429272 -0.887436198209 -1.878726828636
N -8.279193e-06 -6.5316608e-05 -2.376747933302
H 0.296851100458 -0.115663937763 -3.349797315846
H -0.982573985367 0.285947064231 -2.351590634288
H 0.57568414225 0.717268938088 -1.927436079942
Br 1.281484e-06 1.0109948e-05 0.543140241597
