6
Coordinates from XML
H 0.110053429272 -0.887436198209 -1.976405380815
N -8.279193e-06 -6.5316608e-05 -2.474426485482
H 0.296851100458 -0.115663937763 -3.447475868025
H -0.982573985367 0.285947064231 -2.449269186467
H 0.57568414225 0.717268938088 -2.025114632122
Br 1.281484e-06 1.0109948e-05 0.565461689418
