6
Coordinates from XML
H 0.110053429272 -0.887436198209 -2.025244656905
N -8.279193e-06 -6.5316608e-05 -2.523265761572
H 0.296851100458 -0.115663937763 -3.496315144115
H -0.982573985367 0.285947064231 -2.498108462557
H 0.57568414225 0.717268938088 -2.073953908212
Br 1.281484e-06 1.0109948e-05 0.576622413328
