6
Coordinates from XML
H 0.565235323959 0.741773110121 -2.969535252316
N -3.084429e-06 -4.047776e-06 -2.546630783547
H 0.430646679635 -0.297584452923 -1.666591276943
H -0.943592607779 0.352680012189 -2.362780422463
H -0.052246534467 -0.796812421317 -3.18765748173
Cl -1.5e-10 -1.97e-10 1.313366908834
