6
Coordinates from XML
H 0.417104711615 0.010879031357 -2.932573731054
N 0.879104711615 0.657879031357 -2.296573731054
H 0.512104711615 0.382879031357 -1.337573731054
H 1.885104711615 0.525879031357 -2.222573731054
H 0.591104711615 1.627879031357 -2.402573731054
Cl -0.450178758687 -0.336864906332 1.176017788752
