6
Coordinates from XML
H 0.422734487222 0.015089845518 -2.947279331494
N 0.884734487222 0.662089845518 -2.311279331494
H 0.517734487222 0.387089845518 -1.352279331494
H 1.890734487222 0.530089845518 -2.237279331494
H 0.596734487222 1.632089845518 -2.417279331494
Cl -0.453082184787 -0.339036536002 1.183601860858
