6
Coordinates from XML
H 0.425549375026 0.017195252598 -2.954632131714
N 0.887549375026 0.664195252598 -2.318632131714
H 0.520549375026 0.389195252598 -1.359632131714
H 1.893549375026 0.532195252598 -2.244632131714
H 0.599549375026 1.634195252598 -2.424632131714
Cl -0.454533897838 -0.340122350836 1.18739389691
