6
Coordinates from XML
H 0.445253589651 0.031933102162 -3.006101733255
N 0.907253589651 0.678933102162 -2.370101733255
H 0.540253589651 0.403933102162 -1.411101733255
H 1.913253589651 0.546933102162 -2.296101733255
H 0.619253589651 1.648933102162 -2.476101733255
Cl -0.46469588919 -0.347723054679 1.21393814928
