6
Coordinates from XML
H 0.448068477454 0.034038509243 -3.013454533475
N 0.910068477454 0.681038509243 -2.377454533475
H 0.543068477454 0.406038509243 -1.418454533475
H 1.916068477454 0.549038509243 -2.303454533475
H 0.622068477454 1.651038509243 -2.483454533475
Cl -0.46614760224 -0.348808869514 1.217730185333
