6
Coordinates from XML
H 0.453698253061 0.038249323404 -3.028160133915
N 0.915698253061 0.685249323404 -2.392160133915
H 0.548698253061 0.410249323404 -1.433160133915
H 1.921698253061 0.553249323404 -2.318160133915
H 0.627698253061 1.655249323404 -2.498160133915
Cl -0.469051028341 -0.350980499183 1.225314257439
