6
Coordinates from XML
H 0.456513140865 0.040354730485 -3.035512934135
N 0.918513140865 0.687354730485 -2.399512934135
H 0.551513140865 0.412354730485 -1.440512934135
H 1.924513140865 0.555354730485 -2.325512934135
H 0.630513140865 1.657354730485 -2.505512934135
Cl -0.470502741391 -0.352066314018 1.229106293492
