6
Coordinates from XML
H 0.464957804275 0.046670951726 -3.057571334796
N 0.926957804275 0.693670951726 -2.421571334796
H 0.559957804275 0.418670951726 -1.462571334796
H 1.932957804275 0.561670951726 -2.347571334796
H 0.638957804275 1.663670951726 -2.527571334796
Cl -0.474857880542 -0.355323758522 1.24048240165
