6
Coordinates from XML
H 0.470587579883 0.050881765887 -3.072276935236
N 0.932587579883 0.697881765887 -2.436276935236
H 0.565587579883 0.422881765887 -1.477276935236
H 1.938587579883 0.565881765887 -2.362276935236
H 0.644587579883 1.667881765887 -2.542276935236
Cl -0.477761306642 -0.357495388191 1.248066473756
