6
Coordinates from XML
H 0.473402467686 0.052987172968 -3.079629735456
N 0.935402467686 0.699987172968 -2.443629735456
H 0.568402467686 0.424987172968 -1.484629735456
H 1.941402467686 0.567987172968 -2.369629735456
H 0.647402467686 1.669987172968 -2.549629735456
Cl -0.479213019693 -0.358581203026 1.251858509809
