6
Coordinates from XML
H 0.47621735549 0.055092580049 -3.086982535676
N 0.93821735549 0.702092580049 -2.450982535676
H 0.57121735549 0.427092580049 -1.491982535676
H 1.94421735549 0.570092580049 -2.376982535676
H 0.65021735549 1.672092580049 -2.556982535676
Cl -0.480664732743 -0.35966701786 1.255650545862
