6
Coordinates from XML
H 0.501551345722 0.074041243774 -3.153157737657
N 0.963551345722 0.721041243774 -2.517157737657
H 0.596551345722 0.446041243774 -1.558157737657
H 1.969551345722 0.589041243774 -2.443157737657
H 0.675551345722 1.691041243774 -2.623157737657
Cl -0.493730150196 -0.369439351373 1.289778870337
