6
Coordinates from XML
H 0.750862365141 -0.320242688547 -3.982298019361
N 3.3878944e-05 -3.2060058e-05 -3.364813266839
H 0.380682262997 0.186108666082 -2.432733832908
H -0.410568359867 0.857954453244 -3.743146827486
H -0.721065169405 -0.723736302553 -3.300472995625
Cl -1.1004438e-05 1.0413634e-05 1.735307011556
