6
Coordinates from XML
H 0.750862365141 -0.320242688547 -4.061467960022
N 3.3878944e-05 -3.2060058e-05 -3.443983207501
H 0.380682262997 0.186108666082 -2.511903773569
H -0.410568359867 0.857954453244 -3.822316768148
H -0.721065169405 -0.723736302553 -3.379642936287
Cl -1.1004438e-05 1.0413634e-05 1.776137070895
