6
Coordinates from XML
H 0.390430298619 -0.009072207169 -2.862897195635
N 0.852430298619 0.637927792831 -2.226897195635
H 0.485430298619 0.362927792831 -1.267897195635
H 1.858430298619 0.505927792831 -2.152897195635
H 0.564430298619 1.607927792831 -2.332897195635
Cl -0.436422049305 -0.326575518137 1.140083732822
