6
Coordinates from XML
H 0.398568579684 -0.002985145881 -2.884155291509
N 0.860568579684 0.644014854119 -2.248155291509
H 0.493568579684 0.369014854119 -1.289155291509
H 1.866568579684 0.512014854119 -2.174155291509
H 0.572568579684 1.614014854119 -2.354155291509
Cl -0.440619178872 -0.329714778713 1.151047102363
