6
Coordinates from XML
H 0.406706860749 0.003101915406 -2.905413387384
N 0.868706860749 0.650101915406 -2.269413387384
H 0.501706860749 0.375101915406 -1.310413387384
H 1.874706860749 0.518101915406 -2.195413387384
H 0.580706860749 1.620101915406 -2.375413387384
Cl -0.44481630844 -0.33285403929 1.162010471904
