6
Coordinates from XML
H 0.455536547137 0.03962428313 -3.03296196263
N 0.917536547137 0.68662428313 -2.39696196263
H 0.550536547137 0.41162428313 -1.43796196263
H 1.923536547137 0.55462428313 -2.32296196263
H 0.629536547137 1.65662428313 -2.50296196263
Cl -0.469999085843 -0.351689602749 1.227790689147
