6
Coordinates from XML
H 0.488089671396 0.063972528279 -3.117994346128
N 0.950089671396 0.710972528279 -2.481994346128
H 0.583089671396 0.435972528279 -1.522994346128
H 1.956089671396 0.578972528279 -2.407994346128
H 0.662089671396 1.680972528279 -2.587994346128
Cl -0.486787604112 -0.364246645054 1.271644167309
