6
Coordinates from XML
H 0.504366233525 0.076146650854 -3.160510537877
N 0.966366233525 0.723146650854 -2.524510537877
H 0.599366233525 0.448146650854 -1.565510537877
H 1.972366233525 0.591146650854 -2.450510537877
H 0.678366233525 1.693146650854 -2.630510537877
Cl -0.495181863246 -0.370525166207 1.29357090639
