6
Coordinates from XML
H 0.311828672412 -0.577589452528 -2.685510000947
N 7.3774716e-05 -4.1559351e-05 -1.900135570037
H -1.023310708196 0.013840540634 -1.871760919328
H 0.360284242315 -0.390500361447 -1.025114609411
H 0.351004202548 0.954358328493 -2.017779216456
Cl -2.3963241e-05 1.349916e-05 0.979939936764
