6
Coordinates from XML
H 0.311828672412 -0.577589452528 -3.582769328445
N 7.3774716e-05 -4.1559351e-05 -2.797394897534
H -1.023310708196 0.013840540634 -2.769020246825
H 0.360284242315 -0.390500361447 -1.922373936908
H 0.351004202548 0.954358328493 -2.915038543954
Cl -2.3963241e-05 1.349916e-05 1.442680609267
