6
Coordinates from XML
H 0.311828672412 -0.577589452528 -3.675134259216
N 7.3774716e-05 -4.1559351e-05 -2.889759828306
H -1.023310708196 0.013840540634 -2.861385177597
H 0.360284242315 -0.390500361447 -2.01473886768
H 0.351004202548 0.954358328493 -3.007403474725
Cl -2.3963241e-05 1.349916e-05 1.490315678495
