6
Coordinates from XML
H 0.311828672412 -0.577589452528 -3.978619031752
N 7.3774716e-05 -4.1559351e-05 -3.193244600842
H -1.023310708196 0.013840540634 -3.164869950133
H 0.360284242315 -0.390500361447 -2.318223640216
H 0.351004202548 0.954358328493 -3.310888247261
Cl -2.3963241e-05 1.349916e-05 1.646830905959
