6
Coordinates from XML
H -0.531628206578 -0.768609968522 -2.317642207383
N -4.4452174e-05 -9.1709571e-05 -1.900072956132
H 0.13541857317 0.738791607583 -2.595784710929
H -0.515131731102 0.375731674168 -1.099252615507
H 0.91145801067 -0.345672659777 -1.587649516358
Cl 1.4438797e-05 2.9788776e-05 0.979919598738
