6
Coordinates from XML
H -0.531628206578 -0.768609968522 -2.383617157935
N -4.4452174e-05 -9.1709571e-05 -1.966047906683
H 0.13541857317 0.738791607583 -2.66175966148
H -0.515131731102 0.375731674168 -1.165227566058
H 0.91145801067 -0.345672659777 -1.653624466909
Cl 1.4438797e-05 2.9788776e-05 1.013944648187
