6
Coordinates from XML
H -0.531628206578 -0.768609968522 -2.581542009588
N -4.4452174e-05 -9.1709571e-05 -2.163972758337
H 0.13541857317 0.738791607583 -2.859684513134
H -0.515131731102 0.375731674168 -1.363152417712
H 0.91145801067 -0.345672659777 -1.851549318563
Cl 1.4438797e-05 2.9788776e-05 1.116019796533
