6
Coordinates from XML
H -0.404026656372 -0.879392462532 -1.540251078448
N -6.0879054e-05 -5.2563386e-05 -1.873625754156
H 0.639080389733 -0.190882574909 -2.650411425114
H -0.74908739055 0.6204102488 -2.192775440676
H 0.514193408831 0.450002719285 -1.111481339646
Cl 1.9774518e-05 1.7073452e-05 0.966290992392
