6
Coordinates from XML
H -0.404026656372 -0.879392462532 -1.751370920212
N -6.0879054e-05 -5.2563386e-05 -2.08474559592
H 0.639080389733 -0.190882574909 -2.861531266878
H -0.74908739055 0.6204102488 -2.40389528244
H 0.514193408831 0.450002719285 -1.32260118141
Cl 1.9774518e-05 1.7073452e-05 1.075171150628
