6
Coordinates from XML
H -0.404026656372 -0.879392462532 -2.107635653189
N -6.0879054e-05 -5.2563386e-05 -2.441010328897
H 0.639080389733 -0.190882574909 -3.217795999854
H -0.74908739055 0.6204102488 -2.760160015417
H 0.514193408831 0.450002719285 -1.678865914387
Cl 1.9774518e-05 1.7073452e-05 1.258906417651
