6
Coordinates from XML
H 0.344111604858 -0.963775932816 -2.049879261673
N 7.430852e-06 -9.1567506e-05 -2.071568968134
H 0.33465069467 0.462786955112 -2.921316573396
H -1.023625035377 -0.002878500647 -2.065232902983
H 0.344843236684 0.504107759014 -1.2501417682
Cl -2.413663e-06 2.9742631e-05 1.068372105123
