6
Coordinates from XML
H 0.344111604858 -0.963775932816 -2.260999103437
N 7.430852e-06 -9.1567506e-05 -2.282688809898
H 0.33465069467 0.462786955112 -3.13243641516
H -1.023625035377 -0.002878500647 -2.276352744747
H 0.344843236684 0.504107759014 -1.461261609964
Cl -2.413663e-06 2.9742631e-05 1.177252263359
