6
Coordinates from XML
H 0.890564591721 0.42228084486 -2.268709349878
N 0.000102048399 8.79453e-07 -1.992445397046
H -0.772657767276 0.573707153093 -2.341754733069
H -0.068382470592 -0.941716020759 -2.387857193973
H -0.049792137241 -0.054274284951 -0.971447789113
Cl -3.3146998e-05 -2.85661e-07 1.027557107384
