6
Coordinates from XML
H 0.890564591721 0.42228084486 -2.466634201531
N 0.000102048399 8.79453e-07 -2.1903702487
H -0.772657767276 0.573707153093 -2.539679584723
H -0.068382470592 -0.941716020759 -2.585782045627
H -0.049792137241 -0.054274284951 -1.169372640767
Cl -3.3146998e-05 -2.85661e-07 1.12963225573
