6
Coordinates from XML
H 0.890564591721 0.42228084486 -2.611779092744
N 0.000102048399 8.79453e-07 -2.335515139912
H -0.772657767276 0.573707153093 -2.684824475936
H -0.068382470592 -0.941716020759 -2.73092693684
H -0.049792137241 -0.054274284951 -1.31451753198
Cl -3.3146998e-05 -2.85661e-07 1.204487364518
