6
Coordinates from XML
H 0.890564591721 0.42228084486 -2.954848835611
N 0.000102048399 8.79453e-07 -2.678584882779
H -0.772657767276 0.573707153093 -3.027894218803
H -0.068382470592 -0.941716020759 -3.073996679706
H -0.049792137241 -0.054274284951 -1.657587274846
Cl -3.3146998e-05 -2.85661e-07 1.381417621651
