6
Coordinates from XML
H 0.570157091357 -0.140439832685 -1.074854360178
N 8.9892249e-05 -1.5855235e-05 -1.913227890853
H -0.980626127369 0.117145832341 -1.64344490177
H 0.320256268805 0.837301800723 -2.407458578872
H 0.089976882556 -0.813966194937 -2.527456278432
Cl -2.919848e-05 5.150041e-06 0.986711597979
