6
Coordinates from XML
H 0.570157091357 -0.140439832685 -1.127634320619
N 8.9892249e-05 -1.5855235e-05 -1.966007851294
H -0.980626127369 0.117145832341 -1.696224862211
H 0.320256268805 0.837301800723 -2.460238539313
H 0.089976882556 -0.813966194937 -2.580236238873
Cl -2.919848e-05 5.150041e-06 1.013931637538
