6
Coordinates from XML
H 0.570157091357 -0.140439832685 -1.378339132714
N 8.9892249e-05 -1.5855235e-05 -2.216712663389
H -0.980626127369 0.117145832341 -1.946929674306
H 0.320256268805 0.837301800723 -2.710943351407
H 0.089976882556 -0.813966194937 -2.830941050968
Cl -2.919848e-05 5.150041e-06 1.143226825443
