6
Coordinates from XML
H 0.570157091357 -0.140439832685 -1.483899053596
N 8.9892249e-05 -1.5855235e-05 -2.322272584271
H -0.980626127369 0.117145832341 -2.052489595188
H 0.320256268805 0.837301800723 -2.816503272289
H 0.089976882556 -0.813966194937 -2.93650097185
Cl -2.919848e-05 5.150041e-06 1.197666904561
