6
Coordinates from XML
H 0.570157091357 -0.140439832685 -1.523484023927
N 8.9892249e-05 -1.5855235e-05 -2.361857554601
H -0.980626127369 0.117145832341 -2.092074565519
H 0.320256268805 0.837301800723 -2.85608824262
H 0.089976882556 -0.813966194937 -2.976085942181
Cl -2.919848e-05 5.150041e-06 1.21808193423
