6
Coordinates from XML
H 0.570157091357 -0.140439832685 -1.576263984368
N 8.9892249e-05 -1.5855235e-05 -2.414637515042
H -0.980626127369 0.117145832341 -2.14485452596
H 0.320256268805 0.837301800723 -2.908868203061
H 0.089976882556 -0.813966194937 -3.028865902622
Cl -2.919848e-05 5.150041e-06 1.245301973789
