6
Coordinates from XML
H 0.570157091357 -0.140439832685 -1.629043944809
N 8.9892249e-05 -1.5855235e-05 -2.467417475483
H -0.980626127369 0.117145832341 -2.197634486401
H 0.320256268805 0.837301800723 -2.961648163502
H 0.089976882556 -0.813966194937 -3.081645863063
Cl -2.919848e-05 5.150041e-06 1.272522013348
