6
Coordinates from XML
H 0.570157091357 -0.140439832685 -1.68182390525
N 8.9892249e-05 -1.5855235e-05 -2.520197435924
H -0.980626127369 0.117145832341 -2.250414446842
H 0.320256268805 0.837301800723 -3.014428123943
H 0.089976882556 -0.813966194937 -3.134425823504
Cl -2.919848e-05 5.150041e-06 1.299742052907
