6
Coordinates from XML
H 0.307600980161 -0.973701733405 -1.921480195941
N 3.2265041e-05 -8.7138518e-05 -1.992485744884
H -0.207860623467 0.361254717414 -1.057324666017
H 0.742004995512 0.562138534607 -2.418220519541
H -0.841830018324 0.050537140019 -2.57263780849
Cl -1.0480216e-05 2.8304023e-05 1.027570213025
