6
Coordinates from XML
H 0.199995410015 1.003861929328 -2.101508126694
N 1.7225037e-05 8.781821e-05 -2.098052514014
H -0.060884652569 -0.332485762677 -1.131616066042
H -0.889234472487 -0.172490532552 -2.574832830235
H 0.750078515128 -0.499116076301 -2.583927880182
Cl -5.594975e-06 -2.8524798e-05 1.082012516567
