6
Coordinates from XML
H 0.199995410015 1.003861929328 -2.141093097024
N 1.7225037e-05 8.781821e-05 -2.137637484345
H -0.060884652569 -0.332485762677 -1.171201036373
H -0.889234472487 -0.172490532552 -2.614417800566
H 0.750078515128 -0.499116076301 -2.623512850513
Cl -5.594975e-06 -2.8524798e-05 1.102427546236
