6
Coordinates from XML
H 0.199995410015 1.003861929328 -2.193873057465
N 1.7225037e-05 8.781821e-05 -2.190417444786
H -0.060884652569 -0.332485762677 -1.223980996814
H -0.889234472487 -0.172490532552 -2.667197761007
H 0.750078515128 -0.499116076301 -2.676292810954
Cl -5.594975e-06 -2.8524798e-05 1.129647585795
