8
Coordinates from XML
C -0.063404676138 0.098635010669 -3.126503981504
C -0.139404676138 0.096635010669 -1.616503981504
O 0.842595323862 -0.564364989331 -1.062503981504
O -1.122404676138 0.452635010669 -0.997503981504
H 0.902595323862 0.487635010669 -3.457503981504
H -0.175404676138 -0.918364989331 -3.512503981504
H -0.852404676138 0.723635010669 -3.550503981504
K 0.180563744915 -0.021849199858 2.578517071128
