8
Coordinates from XML
C 0.029250655725 0.064893984194 -2.872209700825
C -0.046749344275 0.062893984194 -1.362209700825
O 0.935250655725 -0.598106015806 -0.808209700825
O -1.029749344275 0.418893984194 -0.743209700825
H 0.995250655725 0.453893984194 -3.203209700825
H -0.082749344275 -0.952106015806 -3.258209700825
H -0.759749344275 0.689893984194 -3.296209700825
K 0.040230655725 0.029253984194 2.193370299175
