8
Coordinates from XML
C 1.122232271865 -0.333122200139 0.127498662252
C 1.046232271865 -0.335122200139 1.637498662252
O 2.028232271865 -0.996122200139 2.191498662252
O 0.063232271865 0.020877799861 2.256498662252
H 2.088232271865 0.055877799861 -0.203501337748
H 1.010232271865 -1.350122200139 -0.258501337748
H 0.333232271865 0.291877799861 -0.296501337748
K -1.615167728135 0.632077799861 -2.349901337748
