8
Coordinates from XML
C 1.289099694176 -0.393888029808 0.585469404707
C 1.213099694176 -0.395888029808 2.095469404707
O 2.195099694176 -1.056888029808 2.649469404707
O 0.230099694176 -0.039888029808 2.714469404707
H 2.255099694176 -0.004888029808 0.254469404707
H 1.177099694176 -1.410888029808 0.199469404707
H 0.500099694176 0.231111970192 0.161469404707
K -1.867900305824 0.724111970192 -3.043530595293
