8
Coordinates from XML
C 0.589473341858 -1.130867654371 -1.582166401548
C -0.048481837579 0.090796579351 -2.3323613303
O -0.805544556826 0.866744107096 -1.631232628582
O 0.257920874877 0.183626913196 -3.585539690624
H 0.30072983119 -1.138857803004 -0.524031157235
H 0.262844122316 -2.06364780409 -2.065612376023
H 1.684737130266 -1.08103843676 -1.671933452374
K 3.5720283e-05 -6.8755629e-05 3.457347791785
