8
Coordinates from XML
C 0.68223599041 -0.103898139858 -3.61932394766
C -0.058565934092 0.010060342433 -2.240749062128
O -1.241738169763 0.526236395433 -2.262788256919
O 0.608422040233 -0.429700513321 -1.223550198719
H 0.054850064544 0.271872562443 -4.436801856842
H 1.620527307632 0.468916239765 -3.57484299073
H 0.948287232115 -1.155335199985 -3.803282328601
K 4.1112075e-05 -6.143828e-06 3.541550685394
