8
Coordinates from XML
C -0.759462337536 1.234568508042 -2.385873690767
C 0.060065598315 -0.097150658949 -2.254950947592
O 0.349289996885 -0.70689336923 -3.355579430593
O 0.356101610439 -0.44020114999 -1.043491028326
H -0.961475501449 1.471950182722 -3.437504555099
H -1.707595121466 1.131917112805 -1.83724596626
H -0.196620216962 2.055406646337 -1.917282889995
K -4.6266101e-05 7.5244273e-05 3.421157158324
