8
Coordinates from XML
C -1.337810812265 -0.54075032268 -1.817414981175
C 0.103148190944 0.045009486522 -2.024212802843
O 0.325887501524 0.646377146918 -3.144732378582
O 0.917275345452 -0.144382163927 -1.037154610587
H -1.977169531844 -0.331124294924 -2.683650635527
H -1.267913334925 -1.627241185361 -1.658867155652
H -1.780736992578 -0.104692733297 -0.909772971309
K -8.1744739e-05 -3.2726555e-05 3.035692944072
