8
Coordinates from XML
C 1.439685018003 -0.20817146742 -2.394683158071
C -0.113146744728 0.015702797745 -2.365759601891
O -0.705119545444 0.099670525269 -3.510022511807
O -0.632423272435 0.09399206677 -1.18373643207
H 1.80898484414 -0.280099952563 -3.424989318455
H 1.93576744633 0.626585659174 -1.877413181259
H 1.684765809368 -1.127867273047 -1.843104631155
K 8.7764719e-05 -1.2747406e-05 3.577765572041
