8
Coordinates from XML
C -0.975546270107 0.512706762755 -2.755488796196
C 0.074602932519 -0.045908496077 -1.732073735297
O 0.016103918892 -1.310362100498 -1.477997111553
O 0.890311679412 0.834569332941 -1.250063228446
H -1.622433730254 -0.288128932056 -3.134019715021
H -1.585751369809 1.284727159429 -2.263432185203
H -0.447603158391 0.99530393459 -3.591263814408
K -5.967436e-05 3.0711477e-05 2.734465093438
