8
Coordinates from XML
C -1.111025603473 -0.018973987443 -3.468589763243
C 0.083824989156 -0.001739657713 -2.451595278882
O -0.146580762953 -0.499040695068 -1.282653513565
O 1.179065168547 0.517142513287 -2.903442972173
H -1.999676674265 -0.485005253767 -3.025643958574
H -1.342611617292 1.012627937399 -3.772975787675
H -0.810655106388 -0.568221249525 -4.373160849513
K -6.8069187e-05 -1.46403e-06 3.830684757243
