8
Coordinates from XML
C 1.114729171607 -0.604408426138 -1.346445455968
C -0.089362930788 0.04997727338 -2.110764961978
O -0.959606806718 0.673952781333 -1.389550607612
O -0.076000316727 -0.112807789953 -3.393838833417
H 1.047779014933 -0.414694238875 -0.26820009597
H 1.117901478591 -1.68824233691 -1.535600036497
H 2.058675429707 -0.199909493409 -1.740767552458
K 6.7780631e-05 -3.6610463e-05 3.12005057323
