8
Coordinates from XML
C -1.100769799768 0.814379845215 -1.488346545524
C 0.083354811327 -0.068929984096 -2.017360149218
O 0.007381715514 -1.336107616623 -1.782181665089
O 1.015697172792 0.579966340172 -2.63592896288
H -1.859818388136 0.19935968222 -0.989665994178
H -0.707528657575 1.564639809589 -0.786237682918
H -1.552865368167 1.358666604124 -2.330667957842
K -6.7406253e-05 4.9167934e-05 2.999573162841
