8
Coordinates from XML
C -1.052151169617 -1.004895741818 -2.338079728286
C 0.083740243094 0.077635116592 -2.327107892904
O 0.807165893891 0.165296646484 -3.392842741263
O 0.170388649681 0.768313164759 -1.2369647907
H -1.077861654032 -1.540363194902 -3.295002102548
H -0.882458184654 -1.716432427375 -1.516249270731
H -2.021001555258 -0.517162634981 -2.154806196974
K -6.4033435e-05 -6.1393385e-05 3.517534834017
