8
Coordinates from XML
C 0.03759402684 0.061855692711 -2.849311163702
C -0.03840597316 0.059855692711 -1.339311163702
O 0.94359402684 -0.601144307289 -0.785311163702
O -1.02140597316 0.415855692711 -0.720311163702
H 1.00359402684 0.450855692711 -3.180311163702
H -0.07440597316 -0.955144307289 -3.235311163702
H -0.75140597316 0.686855692711 -3.273311163702
K 0.02759402684 0.033855692711 2.158688836298
