8
Coordinates from XML
C -0.090749980934 0.108592976762 -3.201553678843
C -0.166749980934 0.106592976762 -1.691553678843
O 0.815250019066 -0.554407023238 -1.137553678843
O -1.149749980934 0.462592976762 -1.072553678843
H 0.875250019066 0.497592976762 -3.532553678843
H -0.202749980934 -0.908407023238 -3.587553678843
H -0.879749980934 0.733592976762 -3.625553678843
K 0.221980153661 -0.036931247656 2.692185174826
