8
Coordinates from XML
C -0.091816551636 0.108981375245 -3.20448090196
C -0.167816551636 0.106981375245 -1.69448090196
O 0.814183448364 -0.554018624755 -1.14048090196
O -1.150816551636 0.462981375245 -1.07548090196
H 0.874183448364 0.497981375245 -3.53548090196
H -0.203816551636 -0.908018624755 -3.59048090196
H -0.880816551636 0.733981375245 -3.62848090196
K 0.223595550837 -0.037519504779 2.696618662404
