8
Coordinates from XML
C -0.092883122338 0.109369773727 -3.207408125078
C -0.168883122338 0.107369773727 -1.697408125078
O 0.813116877662 -0.553630226273 -1.143408125078
O -1.151883122338 0.463369773727 -1.078408125078
H 0.873116877662 0.498369773727 -3.538408125078
H -0.204883122338 -0.907630226273 -3.593408125078
H -0.881883122338 0.734369773727 -3.631408125078
K 0.225210948012 -0.038107761901 2.701052149982
