8
Coordinates from XML
C -0.10034911725 0.112088563104 -3.2278986869
C -0.17634911725 0.110088563104 -1.7178986869
O 0.80565088275 -0.550911436896 -1.1638986869
O -1.15934911725 0.466088563104 -1.0988986869
H 0.86565088275 0.501088563104 -3.5588986869
H -0.21234911725 -0.904911436896 -3.6138986869
H -0.88934911725 0.737088563104 -3.6518986869
K 0.236518728243 -0.042225561756 2.732086563026
