8
Coordinates from XML
C -0.101415687951 0.112476961586 -3.230825910018
C -0.177415687951 0.110476961586 -1.720825910018
O 0.804584312049 -0.550523038414 -1.166825910018
O -1.160415687951 0.466476961586 -1.101825910018
H 0.864584312049 0.501476961586 -3.561825910018
H -0.213415687951 -0.904523038414 -3.616825910018
H -0.890415687951 0.737476961586 -3.654825910018
K 0.238134125419 -0.042813818878 2.736520050604
