8
Coordinates from XML
C -0.102482258653 0.112865360069 -3.233753133135
C -0.178482258653 0.110865360069 -1.723753133135
O 0.803517741347 -0.550134639931 -1.169753133135
O -1.161482258653 0.466865360069 -1.104753133135
H 0.863517741347 0.501865360069 -3.564753133135
H -0.214482258653 -0.904134639931 -3.619753133135
H -0.891482258653 0.737865360069 -3.657753133135
K 0.239749522594 -0.043402076 2.740953538182
