8
Coordinates from XML
C -0.104615400057 0.113642157034 -3.239607579371
C -0.180615400057 0.111642157034 -1.729607579371
O 0.801384599943 -0.549357842966 -1.175607579371
O -1.163615400057 0.467642157034 -1.110607579371
H 0.861384599943 0.502642157034 -3.570607579371
H -0.216615400057 -0.903357842966 -3.625607579371
H -0.893615400057 0.738642157034 -3.663607579371
K 0.242980316946 -0.044578590245 2.749820513338
