8
Coordinates from XML
C -0.10674854146 0.114418953999 -3.245462025606
C -0.18274854146 0.112418953999 -1.735462025606
O 0.79925145854 -0.548581046001 -1.181462025606
O -1.16574854146 0.468418953999 -1.116462025606
H 0.85925145854 0.503418953999 -3.576462025606
H -0.21874854146 -0.902581046001 -3.631462025606
H -0.89574854146 0.739418953999 -3.669462025606
K 0.246211111298 -0.045755104489 2.758687488493
