8
Coordinates from XML
C -0.108881682864 0.115195750963 -3.251316471841
C -0.184881682864 0.113195750963 -1.741316471841
O 0.797118317136 -0.547804249037 -1.187316471841
O -1.167881682864 0.469195750963 -1.122316471841
H 0.857118317136 0.504195750963 -3.582316471841
H -0.220881682864 -0.901804249037 -3.637316471841
H -0.897881682864 0.740195750963 -3.675316471841
K 0.249441905649 -0.046931618733 2.767554463649
