8
Coordinates from XML
C -0.090299651082 0.108428986292 -3.200317740193
C -0.166299651082 0.106428986292 -1.690317740193
O 0.815700348918 -0.554571013708 -1.136317740193
O -1.149299651082 0.462428986292 -1.071317740193
H 0.875700348918 0.497428986292 -3.531317740193
H -0.202299651082 -0.908571013708 -3.586317740193
H -0.879299651082 0.733428986292 -3.624317740193
K 0.221298097075 -0.036682872427 2.690313257849
