8
Coordinates from XML
C -0.095703609304 0.110396871936 -3.215149003989
C -0.171703609304 0.108396871936 -1.705149003989
O 0.810296390696 -0.552603128064 -1.151149003989
O -1.154703609304 0.464396871936 -1.086149003989
H 0.870296390696 0.499396871936 -3.546149003989
H -0.207703609304 -0.906603128064 -3.601149003989
H -0.884703609304 0.735396871936 -3.639149003989
K 0.229482776099 -0.039663375179 2.712776261576
