8
Coordinates from XML
C -0.099809557954 0.111892079166 -3.226417856382
C -0.175809557954 0.109892079166 -1.716417856382
O 0.806190442046 -0.551107920834 -1.162417856382
O -1.158809557954 0.465892079166 -1.097417856382
H 0.866190442046 0.500892079166 -3.557417856382
H -0.211809557954 -0.905107920834 -3.612417856382
H -0.888809557954 0.736892079166 -3.650417856382
K 0.235701527319 -0.041927972859 2.729843739899
