8
Coordinates from XML
C -0.101478427405 0.112499808556 -3.230998099613
C -0.177478427405 0.110499808556 -1.720998099613
O 0.804521572595 -0.550500191444 -1.166998099613
O -1.160478427405 0.466499808556 -1.101998099613
H 0.864521572595 0.501499808556 -3.561998099613
H -0.213478427405 -0.904500191444 -3.616998099613
H -0.890478427405 0.737499808556 -3.654998099613
K 0.238229148782 -0.042848422238 2.736780843991
