8
Coordinates from XML
C -0.103147296855 0.113107537946 -3.235578342844
C -0.179147296855 0.111107537946 -1.725578342844
O 0.802852703145 -0.549892462054 -1.171578342844
O -1.162147296855 0.467107537946 -1.106578342844
H 0.862852703145 0.502107537946 -3.566578342844
H -0.215147296855 -0.903892462054 -3.621578342844
H -0.892147296855 0.738107537946 -3.659578342844
K 0.240756770245 -0.043768871618 2.743717948084
