8
Coordinates from XML
C -0.108153905208 0.114930726117 -3.249319072537
C -0.184153905208 0.112930726117 -1.739319072537
O 0.797846094792 -0.548069273883 -1.185319072537
O -1.167153905208 0.468930726117 -1.120319072537
H 0.857846094792 0.503930726117 -3.580319072537
H -0.220153905208 -0.902069273883 -3.635319072537
H -0.897153905208 0.739930726117 -3.673319072537
K 0.248339634635 -0.046530219756 2.76452926036
