8
Coordinates from XML
C -0.11149164411 0.116146184897 -3.258479558999
C -0.18749164411 0.114146184897 -1.748479558999
O 0.79450835589 -0.546853815103 -1.194479558999
O -1.17049164411 0.470146184897 -1.129479558999
H 0.85450835589 0.505146184897 -3.589479558999
H -0.22349164411 -0.900853815103 -3.644479558999
H -0.90049164411 0.741146184897 -3.682479558999
K 0.253394877562 -0.048371118515 2.778403468545
