8
Coordinates from XML
C -0.118167121914 0.118577102457 -3.276800531922
C -0.194167121914 0.116577102457 -1.766800531922
O 0.787832878086 -0.544422897543 -1.212800531922
O -1.177167121914 0.472577102457 -1.147800531922
H 0.847832878086 0.507577102457 -3.607800531922
H -0.230167121914 -0.898422897543 -3.662800531922
H -0.907167121914 0.743577102457 -3.700800531922
K 0.263505363415 -0.052052916032 2.806151884914
