8
Coordinates from XML
C -0.124842599718 0.121008020018 -3.295121504846
C -0.200842599718 0.119008020018 -1.785121504846
O 0.781157400282 -0.541991979982 -1.231121504846
O -1.183842599718 0.475008020018 -1.166121504846
H 0.841157400282 0.510008020018 -3.626121504846
H -0.236842599718 -0.895991979982 -3.681121504846
H -0.913842599718 0.746008020018 -3.719121504846
K 0.273615849268 -0.05573471355 2.833900301284
