8
Coordinates from XML
C -0.126511469169 0.121615749408 -3.299701748077
C -0.202511469169 0.119615749408 -1.789701748077
O 0.779488530831 -0.541384250592 -1.235701748077
O -1.185511469169 0.475615749408 -1.170701748077
H 0.839488530831 0.510615749408 -3.630701748077
H -0.238511469169 -0.895384250592 -3.685701748077
H -0.915511469169 0.746615749408 -3.723701748077
K 0.276143470731 -0.056655162929 2.840837405376
