8
Coordinates from XML
C -0.12984920807 0.122831208188 -3.308862234539
C -0.20584920807 0.120831208188 -1.798862234539
O 0.77615079193 -0.540168791812 -1.244862234539
O -1.18884920807 0.476831208188 -1.179862234539
H 0.83615079193 0.511831208188 -3.639862234539
H -0.24184920807 -0.894168791812 -3.694862234539
H -0.91884920807 0.747831208188 -3.732862234539
K 0.281198713658 -0.058496061688 2.854711613561
