8
Coordinates from XML
C -0.131518077521 0.123438937579 -3.31344247777
C -0.207518077521 0.121438937579 -1.80344247777
O 0.774481922479 -0.539561062421 -1.24944247777
O -1.190518077521 0.477438937579 -1.18444247777
H 0.834481922479 0.512438937579 -3.64444247777
H -0.243518077521 -0.893561062421 -3.69944247777
H -0.920518077521 0.748438937579 -3.73744247777
K 0.283726335121 -0.059416511067 2.861648717653
