8
Coordinates from XML
C -0.133186946972 0.124046666969 -3.318022721001
C -0.209186946972 0.122046666969 -1.808022721001
O 0.772813053028 -0.538953333031 -1.254022721001
O -1.192186946972 0.478046666969 -1.189022721001
H 0.832813053028 0.513046666969 -3.649022721001
H -0.245186946972 -0.892953333031 -3.704022721001
H -0.922186946972 0.749046666969 -3.742022721001
K 0.286253956585 -0.060336960447 2.868585821745
