8
Coordinates from XML
C -0.138193555325 0.125869855139 -3.331763450694
C -0.214193555325 0.123869855139 -1.821763450694
O 0.767806444675 -0.537130144861 -1.267763450694
O -1.197193555325 0.479869855139 -1.202763450694
H 0.827806444675 0.514869855139 -3.662763450694
H -0.250193555325 -0.891130144861 -3.717763450694
H -0.927193555325 0.750869855139 -3.755763450694
K 0.293836820975 -0.063098308585 2.889397134022
