8
Coordinates from XML
C -0.141531294227 0.127085313919 -3.340923937155
C -0.217531294227 0.125085313919 -1.830923937155
O 0.764468705773 -0.535914686081 -1.276923937155
O -1.200531294227 0.481085313919 -1.211923937155
H 0.824468705773 0.516085313919 -3.671923937155
H -0.253531294227 -0.889914686081 -3.726923937155
H -0.930531294227 0.752085313919 -3.764923937155
K 0.298892063901 -0.064939207344 2.903271342207
