8
Coordinates from XML
C -0.14653790258 0.12890850209 -3.354664666848
C -0.22253790258 0.12690850209 -1.844664666848
O 0.75946209742 -0.53409149791 -1.290664666848
O -1.20553790258 0.48290850209 -1.225664666848
H 0.81946209742 0.51790850209 -3.685664666848
H -0.25853790258 -0.88809149791 -3.740664666848
H -0.93553790258 0.75390850209 -3.778664666848
K 0.306474928291 -0.067700555482 2.924082654484
