8
Coordinates from XML
C -0.083995033157 0.106133119707 -3.183014599099
C -0.159995033157 0.104133119707 -1.673014599099
O 0.822004966843 -0.556866880293 -1.119014599099
O -1.142995033157 0.460133119707 -1.054014599099
H 0.882004966843 0.495133119707 -3.514014599099
H -0.195995033157 -0.910866880293 -3.569014599099
H -0.872995033157 0.731133119707 -3.607014599099
K 0.211749304881 -0.033205619216 2.664106420167
