8
Coordinates from XML
C -0.085530248561 0.106692178129 -3.187228026313
C -0.161530248561 0.104692178129 -1.677228026313
O 0.820469751439 -0.556307821871 -1.123228026313
O -1.144530248561 0.460692178129 -1.058228026313
H 0.880469751439 0.495692178129 -3.518228026313
H -0.197530248561 -0.910307821871 -3.573228026313
H -0.874530248561 0.731692178129 -3.611228026313
K 0.214074497785 -0.034052352953 2.670487955317
