8
Coordinates from XML
C -0.088600679369 0.107810294972 -3.195654880742
C -0.164600679369 0.105810294972 -1.685654880742
O 0.817399320631 -0.555189705028 -1.131654880742
O -1.147600679369 0.461810294972 -1.066654880742
H 0.877399320631 0.496810294972 -3.526654880742
H -0.200600679369 -0.909189705028 -3.581654880742
H -0.877600679369 0.732810294972 -3.619654880742
K 0.218724883594 -0.035745820425 2.683251025616
