8
Coordinates from XML
C -0.099347187197 0.111723703924 -3.225148871245
C -0.175347187197 0.109723703924 -1.715148871245
O 0.806652812803 -0.551276296076 -1.161148871245
O -1.158347187197 0.465723703924 -1.096148871245
H 0.866652812803 0.500723703924 -3.556148871245
H -0.211347187197 -0.905276296076 -3.611148871245
H -0.888347187197 0.736723703924 -3.649148871245
K 0.235001233926 -0.041672956581 2.727921771665
