8
Coordinates from XML
C -0.102417618005 0.112841820767 -3.233575725674
C -0.178417618005 0.110841820767 -1.723575725674
O 0.803582381995 -0.550158179233 -1.169575725674
O -1.161417618005 0.466841820767 -1.104575725674
H 0.863582381995 0.501841820767 -3.564575725674
H -0.214417618005 -0.904158179233 -3.619575725674
H -0.891417618005 0.737841820767 -3.657575725674
K 0.239651619735 -0.043366424054 2.740684841965
