8
Coordinates from XML
C -0.123910633661 0.12066863867 -3.292563706678
C -0.199910633661 0.11866863867 -1.782563706678
O 0.782089366339 -0.54233136133 -1.228563706678
O -1.182910633661 0.47466863867 -1.163563706678
H 0.842089366339 0.50966863867 -3.623563706678
H -0.235910633661 -0.89633136133 -3.678563706678
H -0.912910633661 0.74566863867 -3.716563706678
K 0.272204320399 -0.055220696364 2.830026334063
