8
Coordinates from XML
C 0.683706317541 -0.871356110872 -1.814805856597
C -0.25803395169 0.325474527716 -1.483570444731
O -0.862265613897 0.866289204859 -2.476131142805
O -0.322037147923 0.640085843119 -0.240991705301
H 0.676892745303 -1.091731321033 -2.883161193138
H 1.703337947589 -0.635235337944 -1.492550000986
H 0.36654233306 -1.754910805063 -1.251337481923
K 0.284020375712 -0.360197714174 2.276778882074
