8
Coordinates from XML
C 0.683706317541 -0.871356110872 -1.934110496
C -0.25803395169 0.325474527716 -1.602875084133
O -0.862265613897 0.866289204859 -2.595435782208
O -0.322037147923 0.640085843119 -0.360296344704
H 0.676892745303 -1.091731321033 -3.002465832541
H 1.703337947589 -0.635235337944 -1.611854640389
H 0.36654233306 -1.754910805063 -1.370642121326
K 0.284020375712 -0.360197714174 2.457474242671
