8
Coordinates from XML
C -0.352275745436 0.936199085136 -1.61117925503
C 0.140466673084 -0.345836260112 -2.347783282139
O 1.363672071412 -0.348053617479 -2.730558402565
O -0.743869039482 -1.264669291021 -2.491918015571
H 0.45310740896 1.665169784739 -1.511407130312
H -1.185812155603 1.379825822106 -2.165852932114
H -0.734116155243 0.666817802567 -0.621032737601
K -0.151260991758 0.384207617991 3.474324034953
