8
Coordinates from XML
C -0.352275745436 0.936199085136 -1.786159392821
C 0.140466673084 -0.345836260112 -2.52276341993
O 1.363672071412 -0.348053617479 -2.905538540356
O -0.743869039482 -1.264669291021 -2.666898153362
H 0.45310740896 1.665169784739 -1.686387268103
H -1.185812155603 1.379825822106 -2.340833069905
H -0.734116155243 0.666817802567 -0.796012875391
K -0.151260991758 0.384207617991 3.739343897162
