8
Coordinates from XML
C -0.352275745436 0.936199085136 -1.921371317477
C 0.140466673084 -0.345836260112 -2.657975344587
O 1.363672071412 -0.348053617479 -3.040750465012
O -0.743869039482 -1.264669291021 -2.802110078018
H 0.45310740896 1.665169784739 -1.82159919276
H -1.185812155603 1.379825822106 -2.476044994562
H -0.734116155243 0.666817802567 -0.931224800048
K -0.151260991758 0.384207617991 3.944131972505
