8
Coordinates from XML
C 0.601191961496 -0.943223402922 -1.127724774354
C -0.221054208323 0.355733828129 -1.383882066549
O -0.214954746901 1.228033914226 -0.444835469007
O -0.820234079991 0.405996198769 -2.517696772784
H 1.093748525672 -0.910140349362 -0.154951252001
H -0.062837554509 -1.812670356406 -1.176482479683
H 1.34847967231 -1.066562011208 -1.918361963531
K 0.24633422425 -0.391833168396 2.073723603156
