8
Coordinates from XML
C 0.601191961496 -0.943223402922 -1.223168485876
C -0.221054208323 0.355733828129 -1.479325778071
O -0.214954746901 1.228033914226 -0.540279180529
O -0.820234079991 0.405996198769 -2.613140484307
H 1.093748525672 -0.910140349362 -0.250394963523
H -0.062837554509 -1.812670356406 -1.271926191205
H 1.34847967231 -1.066562011208 -2.013805675054
K 0.24633422425 -0.391833168396 2.218279891633
