8
Coordinates from XML
C 0.146796597884 -0.347423218642 -2.653259374425
C -0.064351032647 0.128687915296 -1.184337975408
O -1.278539349827 0.290764607472 -0.807202678379
O 1.012842857775 0.309046196858 -0.510392261496
H -0.808493580294 -0.494226319015 -3.159089690176
H 0.742674194741 0.393614564336 -3.196438360249
H 0.716932930953 -1.282132837132 -2.657840941155
K 0.066837516941 -0.143095584404 1.955919816959
