8
Coordinates from XML
C 0.146796597884 -0.347423218642 -2.748703085947
C -0.064351032647 0.128687915296 -1.279781686931
O -1.278539349827 0.290764607472 -0.902646389901
O 1.012842857775 0.309046196858 -0.605835973019
H -0.808493580294 -0.494226319015 -3.254533401698
H 0.742674194741 0.393614564336 -3.291882071771
H 0.716932930953 -1.282132837132 -2.753284652678
K 0.066837516941 -0.143095584404 2.100476105437
