8
Coordinates from XML
C 0.146796597884 -0.347423218642 -2.844146797469
C -0.064351032647 0.128687915296 -1.375225398453
O -1.278539349827 0.290764607472 -0.998090101423
O 1.012842857775 0.309046196858 -0.701279684541
H -0.808493580294 -0.494226319015 -3.34997711322
H 0.742674194741 0.393614564336 -3.387325783293
H 0.716932930953 -1.282132837132 -2.8487283642
K 0.066837516941 -0.143095584404 2.245032393914
