8
Coordinates from XML
C 0.146796597884 -0.347423218642 -2.907775938484
C -0.064351032647 0.128687915296 -1.438854539468
O -1.278539349827 0.290764607472 -1.061719242438
O 1.012842857775 0.309046196858 -0.764908825556
H -0.808493580294 -0.494226319015 -3.413606254235
H 0.742674194741 0.393614564336 -3.450954924308
H 0.716932930953 -1.282132837132 -2.912357505215
K 0.066837516941 -0.143095584404 2.341403252899
