8
Coordinates from XML
C 0.146796597884 -0.347423218642 -3.035034220514
C -0.064351032647 0.128687915296 -1.566112821497
O -1.278539349827 0.290764607472 -1.188977524468
O 1.012842857775 0.309046196858 -0.892167107586
H -0.808493580294 -0.494226319015 -3.540864536265
H 0.742674194741 0.393614564336 -3.578213206338
H 0.716932930953 -1.282132837132 -3.039615787245
K 0.066837516941 -0.143095584404 2.53414497087
