8
Coordinates from XML
C 0.146796597884 -0.347423218642 -3.122524289409
C -0.064351032647 0.128687915296 -1.653602890393
O -1.278539349827 0.290764607472 -1.276467593364
O 1.012842857775 0.309046196858 -0.979657176481
H -0.808493580294 -0.494226319015 -3.62835460516
H 0.742674194741 0.393614564336 -3.665703275234
H 0.716932930953 -1.282132837132 -3.12710585614
K 0.066837516941 -0.143095584404 2.666654901974
