8
Coordinates from XML
C 0.146796597884 -0.347423218642 -3.249782571439
C -0.064351032647 0.128687915296 -1.780861172423
O -1.278539349827 0.290764607472 -1.403725875393
O 1.012842857775 0.309046196858 -1.106915458511
H -0.808493580294 -0.494226319015 -3.75561288719
H 0.742674194741 0.393614564336 -3.792961557263
H 0.716932930953 -1.282132837132 -3.25436413817
K 0.066837516941 -0.143095584404 2.859396619944
