8
Coordinates from XML
C 0.146796597884 -0.347423218642 -3.281597141947
C -0.064351032647 0.128687915296 -1.81267574293
O -1.278539349827 0.290764607472 -1.435540445901
O 1.012842857775 0.309046196858 -1.138730029018
H -0.808493580294 -0.494226319015 -3.787427457698
H 0.742674194741 0.393614564336 -3.824776127771
H 0.716932930953 -1.282132837132 -3.286178708677
K 0.066837516941 -0.143095584404 2.907582049437
