8
Coordinates from XML
C 0.146796597884 -0.347423218642 -3.464530922364
C -0.064351032647 0.128687915296 -1.995609523348
O -1.278539349827 0.290764607472 -1.618474226319
O 1.012842857775 0.309046196858 -1.321663809436
H -0.808493580294 -0.494226319015 -3.970361238115
H 0.742674194741 0.393614564336 -4.007709908189
H 0.716932930953 -1.282132837132 -3.469112489095
K 0.066837516941 -0.143095584404 3.184648269019
