8
Coordinates from XML
C -0.945431821121 0.469852679757 -1.935782648239
C 0.35225254836 -0.169527217077 -1.355951780696
O 0.81786335814 0.358620849718 -0.284961888425
O 0.815336470692 -1.162552982374 -2.024182072529
H -1.289118784959 1.295144841029 -1.310669136494
H -0.753612536778 0.830668521567 -2.951788458917
H -1.728715128689 -0.291619334008 -2.009172921955
K -0.390203699194 0.190083908373 2.123927298964
