8
Coordinates from XML
C -0.945431821121 0.469852679757 -1.975550861374
C 0.35225254836 -0.169527217077 -1.39571999383
O 0.81786335814 0.358620849718 -0.324730101559
O 0.815336470692 -1.162552982374 -2.063950285663
H -1.289118784959 1.295144841029 -1.350437349628
H -0.753612536778 0.830668521567 -2.991556672052
H -1.728715128689 -0.291619334008 -2.048941135089
K -0.390203699194 0.190083908373 2.184159085829
