6
Coordinates from XML
H 0.275701972786 0.986164758219 -2.381740473914
N -1.504498e-06 -5.381472e-06 -2.376079361401
H -0.510789438991 -0.206642430237 -1.513015246717
H -0.601312855298 -0.190919239893 -3.182630505508
H 0.836421227681 -0.588528308299 -2.426931772306
Na -9.5e-11 -3.39e-10 1.863920607709
