6
Coordinates from XML
H 0.907978468245 0.438454418294 -2.476222317694
N -4.954812e-06 -2.392633e-06 -2.297622966054
H -0.747867050262 0.670359759063 -2.497121642145
H -0.107301252724 -0.820561245612 -2.900714056398
H -0.052741314249 -0.288219684228 -1.316451289324
Na -3.12e-10 -1.51e-10 1.802376059401
