6
Coordinates from XML
H 0.223687877427 0.994626590124 -2.539484270959
N -1.220658e-06 -5.427648e-06 -2.443326397536
H -0.991767316016 -0.148356393285 -2.650388835203
H 0.570299764193 -0.542928875007 -3.097955381759
H 0.197796636403 -0.30326590039 -1.485486492638
Na -7.7e-11 -3.42e-10 1.91667307777
