6
Coordinates from XML
H 0.592707759714 0.047459379882 -3.79256372129
N -3.234389e-06 -2.58984e-07 -2.958886769379
H -0.231834339096 0.948489600713 -2.650497121463
H -0.861570143855 -0.506841674014 -3.181063344479
H 0.500741667615 -0.489103707788 -2.211504304047
Na -2.04e-10 -1.6e-11 2.321108681582
