12
Coordinates from XML
N -0.378649677515 -1.139185840053 -0.650194975611
C 0.122866222097 -0.035010776028 -1.541978537313
H -0.482813401088 -2.019765109486 -1.1819458598
H -1.298858273954 -0.894651822179 -0.247531403205
H 0.280244341911 -1.308380083381 0.128245769268
H -0.60111415117 0.067705392376 -2.356148112262
H 1.077954671094 -0.372712310401 -1.955891156565
C 0.313618074778 1.324689921966 -0.846137450516
H -0.631892765835 1.68472151798 -0.433237434223
H 0.678699144825 2.06663042936 -1.560631529835
H 1.040771595366 1.245899982597 -0.034256303026
F 5.0731868e-05 0.000149087752 2.393006929329
