12
Coordinates from XML
N -0.083683466433 -0.017612759706 -0.040911551348
C -0.522520433238 -0.119670446394 -1.477228033065
H -0.876763815 -0.198212526301 0.597395756242
H 0.28571625747 0.926257852605 0.162486606451
H 0.659113505825 -0.706688978103 0.164428745097
H -1.326525358293 0.609809060832 -1.615090348166
H -0.928998180145 -1.126684571217 -1.612351390697
C 0.58691454658 0.132692413212 -2.513970087844
H 1.000506565151 1.137934576717 -2.402033685419
H 0.186101375548 0.039194680376 -3.526328062812
H 1.396727102929 -0.59196637427 -2.399146919427
F 6.379798e-06 1.262744e-06 3.115055977022
