12
Coordinates from XML
N -0.614389497788 -1.004876905508 -1.588644810473
C 0.541542266149 -0.073168073566 -1.340171270426
H -0.304154428831 -1.840899376358 -2.111951187391
H -1.351496369501 -0.534289124427 -2.139951711728
H -1.029503796268 -1.318988082489 -0.695475004785
H 0.950525816313 0.192027437221 -2.31995394309
H 1.29222695969 -0.642818945889 -0.783816794714
C 0.186698516228 1.208336677188 -0.564801318444
H -0.555920477174 1.797242488516 -1.108682646791
H 1.077973762289 1.825603737843 -0.427427721314
H -0.215755393816 0.96550336999 0.42169446457
F 8.5331459e-05 0.000131140008 2.860391309311
