12
Coordinates from XML
N -0.095975895989 0.453057416663 -0.068775953054
C 0.070565136816 0.452590584158 -1.564858356185
H -0.067266921737 1.417809546865 0.301977409668
H 0.659244981635 -0.089000913322 0.383477175509
H -1.001251086078 0.031478720905 0.19859316931
H 1.027781719615 0.938752248494 -1.776880851795
H -0.738210209292 1.066660496998 -1.972731510208
C 0.042411943528 -0.939904837746 -2.220244481447
H 0.849218451821 -1.566891993272 -1.832881230374
H 0.168705063804 -0.850727423754 -3.302075859345
H -0.910147078823 -1.439606766594 -2.027785691202
F 1.3211807e-05 -5.5436218e-05 2.973465061511
