12
Coordinates from XML
N 0.660666085798 -0.980786822143 -0.755369730124
C -0.389580848361 0.097593221245 -0.746620455079
H 0.597055521557 -1.560013282007 0.098725895792
H 1.607843051125 -0.568553494419 -0.795844157455
H 0.542268880941 -1.600005184475 -1.574691849765
H -0.225705858834 0.69162204083 0.157727397359
H -1.358301086868 -0.40578065339 -0.670753664315
C -0.382251340484 1.020227860949 -1.978715693051
H 0.574649272408 1.540352381501 -2.067663000306
H -1.172082562066 1.770644893682 -1.893260371402
H -0.553481828618 0.446983953911 -2.893145918753
F -9.0062081e-05 0.000129482701 2.789490357249
