12
Coordinates from XML
N -1.175555891121 -0.358635179145 -0.847334944778
C 0.203964246655 -0.358520306008 -1.449765743106
H -1.747838839652 -1.122731900495 -1.244421032601
H -1.65705743625 0.536542152874 -1.035835622967
H -1.127373836259 -0.490425959233 0.176895348649
H 0.077060082282 -0.248428183693 -2.531128469748
H 0.639707432096 -1.340406543607 -1.240990215674
C 1.140878381881 0.744276862224 -0.924982564592
H 0.727892282213 1.73456351932 -1.132044732935
H 2.117184943137 0.673110677129 -1.410804101935
H 1.288260002172 0.646814567194 0.153391606903
F 0.000155955282 4.3883299e-05 2.562946150474
