12
Coordinates from XML
N 0.355474258177 -0.164155106557 -2.53858567597
C 0.448502685854 -0.147339670557 -1.036233638911
H 1.24323371141 -0.490478065692 -2.956228362289
H 0.156045331582 0.78237720119 -2.903309397476
H -0.39993494872 -0.796899666837 -2.851202479213
H 1.282970372521 0.511937165016 -0.778187087128
H 0.6914468488 -1.16751466793 -0.723534044211
C -0.825392978036 0.324909355648 -0.312674539548
H -1.080588922382 1.34660311327 -0.604422408309
H -0.673856137008 0.306600846408 0.769435934434
H -1.670027546483 -0.326470683734 -0.550177349588
F -4.2672907e-05 2.0237091e-05 3.28529996161
