9
Coordinates from XML
N -0.271084913639 0.022232677919 -1.782410693977
C 0.310390479651 -0.025448025138 -3.137768439207
H -1.242956929437 0.358046959655 -1.803178291139
H 0.261101320957 0.652714039425 -1.168284424795
H -0.274312603062 -0.90776955529 -1.34308788755
H 0.285304739139 0.985962775177 -3.547653092041
H -0.295713415737 -0.707229100249 -3.737413036962
H 1.336388377222 -0.387548856726 -3.048410272583
Na 4.2566114e-05 -3.489535e-06 3.365631793165
