9
Coordinates from XML
N -0.0837146 -0.0806649 -1.81979
C 0.095846 0.092354 -3.27416
H -0.497667 -0.996026 -1.59957
H -0.704155 0.641295 -1.43029
H 0.813912 -0.0189712 -1.32141
H -0.88693 0.0169519 -3.74326
H 0.760238 -0.699558 -3.62519
H 0.536239 1.07716 -3.44143
Na 1.31438e-05 1.26649e-05 3.48209
