9
Coordinates from XML
N 0.148497032365 0.268260306881 -2.578961221528
C -0.170036229019 -0.307153062719 -1.258045737677
H 0.368940265618 1.270306798542 -2.507930598109
H -0.641272027111 0.170598109662 -3.230579927465
H 0.960485366843 -0.197829053336 -3.004818889022
H -1.035389257404 0.226857039632 -0.861077380181
H 0.702619814908 -0.172845588237 -0.616022419334
H -0.393529767503 -1.366210219055 -1.400250371459
Na -2.3318641e-05 -4.2122009e-05 2.736936795571
