9
Coordinates from XML
N -0.444732464905 -0.520170726217 -1.759772238791
C 0.509224198862 0.595614125382 -1.909346797449
H -0.922591345324 -0.726139238297 -2.646883056241
H -1.168257612055 -0.303574677547 -1.0615763328
H 0.029865472553 -1.380909195698 -1.456778534376
H -0.052710041185 1.474571811659 -2.230671906331
H 1.247340752828 0.305645941629 -2.659589035112
H 0.980783116919 0.764101008917 -0.939286007149
Na 6.9833978e-05 8.1681817e-05 2.5504910971
