9
Coordinates from XML
N 0.415270835617 0.54557138524 -2.252998823274
C -0.475485800802 -0.624702242828 -2.133024033737
H 1.377271803167 0.262458349812 -2.481338236439
H 0.450352949288 1.081319149328 -1.375716891068
H 0.096754953563 1.184630393254 -2.993316536932
H -0.086054564538 -1.260410430235 -1.335650255208
H -0.469690432087 -1.148413072721 -3.090862428433
H -1.475537729823 -0.259767462539 -1.891172167099
Na -6.5206979e-05 -8.5671069e-05 3.062940466131
