9
Coordinates from XML
N 0.600718974378 0.0508728532 -2.25271348467
C -0.687840121082 -0.05826414096 -1.542019264901
H 0.733821977722 -0.729453754328 -2.909304465483
H 1.39260988616 0.041571998107 -1.596434361178
H 0.657494103605 0.923749450899 -2.7938069423
H -0.68595006495 -0.999932218142 -0.989892295714
H -1.483664398888 -0.042799228238 -2.289137438505
H -0.76876508952 0.793941935429 -0.864546362971
Na -9.4329391e-05 -7.990804e-06 2.67866148301
