9
Coordinates from XML
N 0.332362 0.0728296 -1.34022
C -0.380552 -0.0833904 -2.62269
H 1.22858 0.561221 -1.46673
H 0.535041 -0.83943 -0.910589
H -0.223459 0.615657 -0.666189
H 0.257604 -0.664712 -3.29083
H -0.565372 0.914187 -3.02573
H -1.31799 -0.605666 -2.42217
Na -5.21879e-05 -1.1436e-05 2.70181
