9
Coordinates from XML
N 0.069123010522 -0.082899157336 -1.701459678329
C -0.079149679471 0.094935142652 -3.158776346439
H -0.369415935894 0.689594598723 -1.183121247064
H 1.059765361092 -0.116697674106 -1.426932077675
H -0.369945841715 -0.95718477277 -1.384028889589
H 0.404593108321 1.034747082865 -3.431417066604
H -1.146786187071 0.122854272343 -3.384904230248
H 0.404039455384 -0.752157056171 -3.649425555805
Na -1.0854549e-05 1.3019811e-05 3.31903981758
