9
Coordinates from XML
N 0.472216414531 -0.482829157249 -2.403073222374
C -0.540695616279 0.552854430649 -2.122448163619
H 0.8506648236 -0.88208599614 -1.534103419521
H 1.262854171091 -0.098772257152 -2.937182055281
H 0.074848367432 -1.25668424086 -2.951859195877
H -0.05964608155 1.341501728274 -1.540887061854
H -1.348732624745 0.085119925728 -1.556708262379
H -0.901467393189 0.935045779491 -3.079290406549
Na -7.4149984e-05 7.581771e-05 3.167767380297
