9
Coordinates from XML
N 0.390162 -0.0250154 -2.10483
C -0.425036 0.0272714 -0.813823
H 0.916877 0.841196 -2.24123
H -0.217459 -0.154684 -2.91739
H 1.05844 -0.799372 -2.08533
H -1.11772 0.859993 -0.878612
H 0.257287 0.165229 0.0180547
H -0.965134 -0.908097 -0.710586
Na -0.0128231 0.000815074 2.09328
