9
Coordinates from XML
N 0.390162 -0.0250154 -2.18837
C -0.425036 0.0272714 -0.897362
H 0.916877 0.841196 -2.32476
H -0.217459 -0.154684 -3.00093
H 1.05844 -0.799372 -2.16887
H -1.11772 0.859993 -0.962151
H 0.257287 0.165229 -0.065484
H -0.965134 -0.908097 -0.794125
Na -0.0128231 0.000815074 2.20974
