9
Coordinates from XML
N 0.390162275986 -0.025015419526 -2.188371310738
C -0.42503591309 0.027271367033 -0.897362171953
H 0.916876993866 0.841196206436 -2.32476391157
H -0.21745900847 -0.154683998823 -3.000925162206
H 1.058443331335 -0.799372433091 -2.168870373925
H -1.117724723517 0.859992727314 -0.962151095721
H 0.257286838798 0.165228672038 -0.065484009736
H -0.965134376404 -0.908096532523 -0.794124672775
Na -0.012823072687 0.000815073607 2.209743411422
