9
Coordinates from XML
N 0.390162275986 -0.025015419526 -2.606064907107
C -0.42503591309 0.027271367033 -1.315055768322
H 0.916876993866 0.841196206436 -2.742457507939
H -0.21745900847 -0.154683998823 -3.418618758576
H 1.058443331335 -0.799372433091 -2.586563970294
H -1.117724723517 0.859992727314 -1.37984469209
H 0.257286838798 0.165228672038 -0.483177606105
H -0.965134376404 -0.908096532523 -1.211818269144
Na -0.012823072687 0.000815073607 2.792049815053
