9
Coordinates from XML
N 0.390162275986 -0.025015419526 -2.689603626381
C -0.42503591309 0.027271367033 -1.398594487596
H 0.916876993866 0.841196206436 -2.825996227213
H -0.21745900847 -0.154683998823 -3.502157477849
H 1.058443331335 -0.799372433091 -2.670102689568
H -1.117724723517 0.859992727314 -1.463383411364
H 0.257286838798 0.165228672038 -0.566716325379
H -0.965134376404 -0.908096532523 -1.295356988418
Na -0.012823072687 0.000815073607 2.908511095779
