9
Coordinates from XML
N 0.390162275986 -0.025015419526 -2.764788473727
C -0.42503591309 0.027271367033 -1.473779334943
H 0.916876993866 0.841196206436 -2.90118107456
H -0.21745900847 -0.154683998823 -3.577342325196
H 1.058443331335 -0.799372433091 -2.745287536914
H -1.117724723517 0.859992727314 -1.538568258711
H 0.257286838798 0.165228672038 -0.641901172726
H -0.965134376404 -0.908096532523 -1.370541835764
Na -0.012823072687 0.000815073607 3.013326248432
