9
Coordinates from XML
N 0.390162275986 -0.025015419526 -3.015404631549
C -0.42503591309 0.027271367033 -1.724395492764
H 0.916876993866 0.841196206436 -3.151797232381
H -0.21745900847 -0.154683998823 -3.827958483017
H 1.058443331335 -0.799372433091 -2.995903694736
H -1.117724723517 0.859992727314 -1.789184416532
H 0.257286838798 0.165228672038 -0.892517330547
H -0.965134376404 -0.908096532523 -1.621157993586
Na -0.012823072687 0.000815073607 3.362710090611
