9
Coordinates from XML
N 0.390162275986 -0.025015419526 -3.098943350823
C -0.42503591309 0.027271367033 -1.807934212038
H 0.916876993866 0.841196206436 -3.235335951655
H -0.21745900847 -0.154683998823 -3.911497202291
H 1.058443331335 -0.799372433091 -3.07944241401
H -1.117724723517 0.859992727314 -1.872723135806
H 0.257286838798 0.165228672038 -0.976056049821
H -0.965134376404 -0.908096532523 -1.70469671286
Na -0.012823072687 0.000815073607 3.479171371337
