9
Coordinates from XML
N 0.390162275986 -0.025015419526 -3.182482070096
C -0.42503591309 0.027271367033 -1.891472931312
H 0.916876993866 0.841196206436 -3.318874670929
H -0.21745900847 -0.154683998823 -3.995035921565
H 1.058443331335 -0.799372433091 -3.162981133283
H -1.117724723517 0.859992727314 -1.95626185508
H 0.257286838798 0.165228672038 -1.059594769095
H -0.965134376404 -0.908096532523 -1.788235432134
Na -0.012823072687 0.000815073607 3.595632652063
