9
Coordinates from XML
N 0.093821263484 1.378080536918 -1.149116251154
C 0.150821263484 0.005080536918 -1.748116251154
H 0.003821263484 1.320080536918 -0.122116251154
H -0.717178736516 1.900080536918 -1.520116251154
H 0.952821263484 1.906080536918 -1.373116251154
H -0.766178736516 -0.530919463082 -1.491116251154
H 1.012821263484 -0.523919463082 -1.334116251154
H 0.246821263484 0.066080536918 -2.835116251154
Na -0.16800099092 -1.023419985559 1.992718564334
