9
Coordinates from XML
N 0.095118528049 1.395774055119 -1.165083334558
C 0.152118528049 0.022774055119 -1.764083334558
H 0.005118528049 1.337774055119 -0.138083334558
H -0.715881471951 1.917774055119 -1.536083334558
H 0.954118528049 1.923774055119 -1.389083334558
H -0.764881471951 -0.513225944881 -1.507083334558
H 1.014118528049 -0.506225944881 -1.350083334558
H 0.248118528049 0.083774055119 -2.851083334558
Na -0.169809506708 -1.048086509157 2.014978266169
