9
Coordinates from XML
N 0.097713057179 1.431161091521 -1.197017501366
C 0.154713057179 0.058161091521 -1.796017501366
H 0.007713057179 1.373161091521 -0.170017501366
H -0.713286942821 1.953161091521 -1.568017501366
H 0.956713057179 1.959161091521 -1.421017501366
H -0.762286942821 -0.477838908479 -1.539017501366
H 1.016713057179 -0.470838908479 -1.382017501366
H 0.250713057179 0.119161091521 -2.883017501366
Na -0.173426538283 -1.097419556351 2.059497669838
