9
Coordinates from XML
N 0.105496644568 1.537322200727 -1.292820001791
C 0.162496644568 0.164322200727 -1.891820001791
H 0.015496644568 1.479322200727 -0.265820001791
H -0.705503355432 2.059322200727 -1.663820001791
H 0.964496644568 2.065322200727 -1.516820001791
H -0.754503355432 -0.371677799273 -1.634820001791
H 1.024496644568 -0.364677799273 -1.477820001791
H 0.258496644568 0.225322200727 -2.978820001791
Na -0.184277633007 -1.245418697934 2.193055880848
