9
Coordinates from XML
N 0.109388438263 1.59040275533 -1.340721252004
C 0.166388438263 0.21740275533 -1.939721252004
H 0.019388438263 1.53240275533 -0.313721252004
H -0.701611561737 2.11240275533 -1.711721252004
H 0.968388438263 2.11840275533 -1.564721252004
H -0.750611561737 -0.31859724467 -1.682721252004
H 1.028388438263 -0.31159724467 -1.525721252004
H 0.262388438263 0.27840275533 -3.026721252004
Na -0.18970318037 -1.319418268725 2.259834986352
