9
Coordinates from XML
N -0.675679487736 -0.115312536151 -1.9836980929
C 0.736171579384 0.125612080813 -1.452079352486
H -0.777249755366 0.250630909794 -2.933499541439
H -1.373313125852 0.344278011688 -1.393490364532
H -0.893033263806 -1.114721525858 -2.007099957234
H 0.922561659013 1.194558093198 -1.444770630096
H 1.440129631646 -0.377766923018 -2.106044543976
H 0.797789593368 -0.276938359063 -0.446378699936
Na 0.022172103831 0.003792468925 2.419117352175
