9
Coordinates from XML
N -0.675679487736 -0.115312536151 -2.267729738431
C 0.736171579384 0.125612080813 -1.736110998017
H -0.777249755366 0.250630909794 -3.21753118697
H -1.373313125852 0.344278011688 -1.677522010063
H -0.893033263806 -1.114721525858 -2.291131602765
H 0.922561659013 1.194558093198 -1.728802275627
H 1.440129631646 -0.377766923018 -2.390076189507
H 0.797789593368 -0.276938359063 -0.730410345467
Na 0.022172103831 0.003792468925 2.815085706644
