9
Coordinates from XML
N -0.675679487736 -0.115312536151 -2.309499098068
C 0.736171579384 0.125612080813 -1.777880357654
H -0.777249755366 0.250630909794 -3.259300546607
H -1.373313125852 0.344278011688 -1.7192913697
H -0.893033263806 -1.114721525858 -2.332900962402
H 0.922561659013 1.194558093198 -1.770571635264
H 1.440129631646 -0.377766923018 -2.431845549144
H 0.797789593368 -0.276938359063 -0.772179705104
Na 0.022172103831 0.003792468925 2.873316347007
