9
Coordinates from XML
N -0.675679487736 -0.115312536151 -2.393037817341
C 0.736171579384 0.125612080813 -1.861419076928
H -0.777249755366 0.250630909794 -3.342839265881
H -1.373313125852 0.344278011688 -1.802830088974
H -0.893033263806 -1.114721525858 -2.416439681675
H 0.922561659013 1.194558093198 -1.854110354538
H 1.440129631646 -0.377766923018 -2.515384268418
H 0.797789593368 -0.276938359063 -0.855718424378
Na 0.022172103831 0.003792468925 2.989777627733
