9
Coordinates from XML
N -0.675679487736 -0.115312536151 -2.476576536615
C 0.736171579384 0.125612080813 -1.944957796202
H -0.777249755366 0.250630909794 -3.426377985155
H -1.373313125852 0.344278011688 -1.886368808248
H -0.893033263806 -1.114721525858 -2.499978400949
H 0.922561659013 1.194558093198 -1.937649073812
H 1.440129631646 -0.377766923018 -2.598922987692
H 0.797789593368 -0.276938359063 -0.939257143652
Na 0.022172103831 0.003792468925 3.106238908459
