9
Coordinates from XML
N -0.675679487736 -0.115312536151 -2.718838822509
C 0.736171579384 0.125612080813 -2.187220082096
H -0.777249755366 0.250630909794 -3.668640271049
H -1.373313125852 0.344278011688 -2.128631094142
H -0.893033263806 -1.114721525858 -2.742240686843
H 0.922561659013 1.194558093198 -2.179911359706
H 1.440129631646 -0.377766923018 -2.841185273586
H 0.797789593368 -0.276938359063 -1.181519429546
Na 0.022172103831 0.003792468925 3.443976622565
