9
Coordinates from XML
N -0.675679487736 -0.115312536151 -2.802377541783
C 0.736171579384 0.125612080813 -2.27075880137
H -0.777249755366 0.250630909794 -3.752178990323
H -1.373313125852 0.344278011688 -2.212169813416
H -0.893033263806 -1.114721525858 -2.825779406117
H 0.922561659013 1.194558093198 -2.26345007898
H 1.440129631646 -0.377766923018 -2.92472399286
H 0.797789593368 -0.276938359063 -1.26505814882
Na 0.022172103831 0.003792468925 3.560437903291
