9
Coordinates from XML
N -0.675679487736 -0.115312536151 -2.885916261057
C 0.736171579384 0.125612080813 -2.354297520644
H -0.777249755366 0.250630909794 -3.835717709596
H -1.373313125852 0.344278011688 -2.29570853269
H -0.893033263806 -1.114721525858 -2.909318125391
H 0.922561659013 1.194558093198 -2.346988798254
H 1.440129631646 -0.377766923018 -3.008262712134
H 0.797789593368 -0.276938359063 -1.348596868094
Na 0.022172103831 0.003792468925 3.676899184018
