9
Coordinates from XML
N -0.675679487736 -0.115312536151 -3.00287046804
C 0.736171579384 0.125612080813 -2.471251727627
H -0.777249755366 0.250630909794 -3.95267191658
H -1.373313125852 0.344278011688 -2.412662739673
H -0.893033263806 -1.114721525858 -3.026272332374
H 0.922561659013 1.194558093198 -2.463943005237
H 1.440129631646 -0.377766923018 -3.125216919117
H 0.797789593368 -0.276938359063 -1.465551075077
Na 0.022172103831 0.003792468925 3.839944977034
