9
Coordinates from XML
N -0.122316361727 -0.607500281302 -2.150693961906
C 0.133269733278 0.661839146758 -1.339867373566
H 0.594345750515 -1.31289677681 -1.963170316612
H -0.113731007538 -0.40973342828 -3.15422567085
H -1.031849290761 -1.014099120821 -1.91823778402
H 1.104806750011 1.057105716319 -1.617932870721
H 0.115373163671 0.405784982278 -0.285953804923
H -0.647796234545 1.379118036068 -1.569485290311
Na 0.004012812863 0.019952284276 2.470054115886
