6
Coordinates from XML
H 0.243087800804 0.96297000327 -0.943800340119
N -1.326576e-06 -5.25511e-06 -1.193124081263
H 0.827055830476 -0.596234207527 -1.098412174577
H -0.73792775284 -0.338260381968 -0.568947624981
H -0.332197445573 -0.028402393662 -2.161311837355
Li -1.37e-10 -5.42e-10 3.066877279196
