6
Coordinates from XML
H 1.019497915011 -0.079666286364 -1.47609374832
N -5.563594e-06 4.34754e-07 -1.422784549687
H -0.267609544387 0.987645630481 -1.460572468658
H -0.422981806103 -0.498641322247 -2.210817344974
H -0.328829258009 -0.409344062808 -0.543659842773
Li -5.74e-10 4.5e-11 3.657215159426
