210
Coordinates from XML
H 0.361172133589 -0.539842655092 -0.171823592241
N -1.970985e-06 2.946024e-06 -0.963464920837
H 0.665594879041 0.740016925459 -1.203970624463
H -0.127708559161 -0.619221407153 -1.768946402791
H -0.8990310665 0.419006201584 -0.709041755131
Li -2.03e-10 3.04e-10 2.476539398831
H -0.59984932171 -0.829859258471 -0.96577780449
N 3.273492e-06 4.528699e-06 -0.974663679456
H 0.798995079643 -0.149722977667 -0.352026853096
H 0.336290341075 0.167868968441 -1.927176528738
H -0.535481584397 0.811650341109 -0.65367266374
Li 3.38e-10 4.67e-10 2.50533636903
H -0.312364117762 -0.970268382401 -1.056073065429
N 1.70463e-06 5.294939e-06 -1.153912648747
H 0.213682443385 0.384645827785 -0.229318114706
H 0.839904045085 0.030824943471 -1.738859140114
H -0.741246056662 0.554724037611 -1.591390720091
Li 1.76e-10 5.46e-10 2.966087885124
H 1.011566039729 0.066558989056 -1.059866054863
N -5.520308e-06 -3.63225e-07 -1.204326539249
H -0.485585770555 0.247822728699 -0.337563373396
H -0.281466097785 0.643702810158 -1.949292550489
H -0.244437466335 -0.958079480877 -1.470570070778
Li -5.69e-10 -3.7e-11 3.095674249014
H -0.727423468775 -0.617164387978 -1.699752273748
N 3.969688e-06 3.367983e-06 -1.327557052427
H 0.069549168127 -0.126995060202 -0.313891567855
H 0.898001003857 -0.229693434072 -1.76274539757
H -0.240181862294 0.973806083896 -1.533875317724
Li 4.09e-10 3.47e-10 3.412440916654
H -0.089581983123 -0.962355464021 -0.938897631948
N 4.88866e-07 5.251756e-06 -1.277147293354
H 0.991192038632 0.24993273924 -1.336799725601
H -0.42786213503 0.077133867475 -2.20425728775
H -0.473754713303 0.635215883792 -0.628601495922
Li 5e-11 5.42e-10 3.282854552338
H -0.364892401861 0.931207507193 -1.541663438064
N 1.991287e-06 -5.081776e-06 -1.321956369458
H 0.229646915373 -0.490372468669 -2.191028221904
H 0.843201208287 0.090499965179 -0.748046875786
H -0.707983390869 -0.531264392077 -0.807108397848
Li 2.05e-10 -5.24e-10 3.398042431689
H -0.087598573654 1.001979753776 -0.804904089807
N 4.78042e-07 -5.467994e-06 -0.997070740131
H 0.890409346782 -0.180367719092 -1.469431147921
H -0.030422505201 -0.520488228026 -0.115753357686
H -0.772394910354 -0.301047828513 -1.598175598835
Li 4.9e-11 -5.64e-10 2.562930308445
H -0.891597736888 0.014084014585 -0.47685708929
N 4.865618e-06 -7.6859e-08 -0.980267893279
H 0.222852729177 0.944750736103 -1.306254980621
H 0.740466929377 -0.328475333342 -0.353874943117
H -0.071789529761 -0.630358349383 -1.784035398875
Li 5.02e-10 -8e-12 2.519734853631
H 0.149082517674 -1.013083511648 -1.081962411958
N -8.13572e-07 5.528589e-06 -1.081092413506
H 0.236471362033 0.380570586 -2.001817126568
H -0.981963000168 0.2002980299 -0.870898769425
H 0.596420425094 0.432138075626 -0.369691431036
Li -8.4e-11 5.7e-10 2.778907581746
H 0.778426962033 -0.533752797156 -1.562259919478
N -4.248024e-06 2.91279e-06 -1.165112977767
H 0.34717339762 0.600886273852 -0.412192185941
H -0.424710307474 0.578729706904 -1.895351466784
H -0.7008310256 -0.64590365702 -0.790687122747
Li -4.38e-10 3e-10 2.994884855162
H -0.159463393525 -0.969982015413 -1.552771410602
N 8.70222e-07 5.293376e-06 -1.26594085195
H -0.89693903803 0.443394120512 -1.048253004437
H 0.599220170688 0.016307275836 -0.435748907086
H 0.457170169074 0.510207067245 -2.027018096471
Li 9e-11 5.46e-10 3.254057582931
H 0.26366666457 -0.81968398663 -1.92099221474
N -1.438879e-06 4.473171e-06 -1.366766664902
H 0.450025449403 -0.049839508047 -0.448358135238
H 0.303229352086 0.850485793842 -1.849758176836
H -1.016901472737 0.018975545817 -1.248012256382
Li -1.48e-10 4.61e-10 3.513230310913
H -0.258079630016 -0.923940888627 -0.99178544831
N 1.40839e-06 5.042121e-06 -1.349967098692
H -0.84251851728 0.571913377328 -1.457502585722
H 0.639509379166 0.454682825298 -0.692056877766
H 0.461069198462 -0.10272537461 -2.258488504294
Li 1.45e-10 5.2e-10 3.470034855761
H 0.306982113246 0.974530136069 -0.88990651702
N -1.67526e-06 -5.318196e-06 -0.957859456433
H -1.021831936557 -0.040380461866 -0.905747894654
H 0.312164162608 -0.394780782268 -1.849629052593
H 0.40270893855 -0.539294995241 -0.186147725437
Li -1.73e-10 -5.49e-10 2.462140914358
H 0.001339628203 -0.535163582472 -0.191268571314
N -7.311e-09 2.920489e-06 -1.064292637125
H -0.729369223664 -0.361782416131 -1.685271514738
H -0.184189967542 0.986297375746 -0.859730920081
H 0.912219664584 -0.08939195754 -1.520814286108
Li -1e-12 3.01e-10 2.735712126616
H 0.071990606522 0.479407706582 -0.246340445549
N -3.92866e-07 -2.616219e-06 -1.148315521922
H 0.845249366947 0.178370643805 -1.698059711199
H -0.09963863883 -1.007151848243 -0.992524526119
H -0.817595875734 0.349409850396 -1.656249321318
Li -4.1e-11 -2.7e-10 2.951689399792
H 0.303216897225 -0.694481039982 -1.87062873921
N -1.654712e-06 3.789915e-06 -1.181915932007
H 0.641425013759 -0.008186990067 -0.383800908907
H 0.001252548099 0.929611371108 -1.611306618869
H -0.945871466744 -0.226996002184 -0.861994718152
Li -1.71e-10 3.91e-10 3.038080309965
H 0.243087800804 0.96297000327 -0.943800340119
N -1.326576e-06 -5.25511e-06 -1.193124081263
H 0.827055830476 -0.596234207527 -1.098412174577
H -0.73792775284 -0.338260381968 -0.568947624981
H -0.332197445573 -0.028402393662 -2.161311837355
Li -1.37e-10 -5.42e-10 3.066877279196
H 0.256894224318 0.54134839247 -0.508393622692
N -1.401921e-06 -2.954241e-06 -1.338766645275
H -0.987607097475 -0.264333975351 -1.281784618397
H 0.153636204114 0.567491958535 -2.17715390662
H 0.577096148824 -0.844465326275 -1.387653342276
Li -1.45e-10 -3.05e-10 3.441237885736
H -0.93036294055 0.189893902308 -1.783692829245
N 5.077167e-06 -1.036287e-06 -1.400376688304
H 0.435860509207 0.880056161683 -1.110528071502
H -0.084647067444 -0.621739734712 -0.591165223177
H 0.579078951203 -0.448195929999 -2.11615806251
Li 5.24e-10 -1.07e-10 3.599621220094
H 0.005074752964 -1.021375217068 -1.047680535708
N -2.7694e-08 5.573838e-06 -0.974663232498
H -0.963830122791 0.330033028316 -0.871725012789
H 0.547920061075 0.286552226682 -0.158438519525
H 0.41083569356 0.404712513206 -1.820815992565
Li -3e-12 5.75e-10 2.505336369076
H 0.992436903386 0.22050279565 -1.231623728066
N -5.415916e-06 -1.203326e-06 -1.109099325221
H -0.568032413758 0.709738816583 -1.580371310239
H -0.197823035829 -0.919549586945 -1.513879697071
H -0.22650619927 -0.010675304997 -0.110534530782
Li -5.59e-10 -1.24e-10 2.850900006212
H -0.899806952527 0.306729316136 -0.711731222188
N 4.910417e-06 -1.67388e-06 -1.092297525306
H 0.281530768409 0.627581925427 -1.85082561784
H 0.707884385679 0.019504956405 -0.352652793102
H -0.089676432144 -0.953792939289 -1.453943303417
Li 5.07e-10 -1.73e-10 2.807704551291
H 0.171908743137 0.900449448214 -1.671821155378
N -9.38139e-07 -4.913923e-06 -1.215526291072
H 0.890886920427 -0.481622415811 -1.064376513247
H -0.460637693349 0.15640800031 -0.314473035148
H -0.602144934715 -0.57516675341 -1.81147902056
Li -9.7e-11 -5.07e-10 3.124471219111
H 0.451539802405 -0.553197503755 -1.960658840607
N -2.464138e-06 3.018904e-06 -1.226727806208
H 0.687166830047 0.234979600547 -0.504877948406
H -0.377455991472 0.861312285183 -1.631972636557
H -0.761216401609 -0.543136329849 -0.809473472213
Li -2.54e-10 3.11e-10 3.153268189026
H -0.847033811609 0.575014652726 -1.39373534923
N 4.622424e-06 -3.137964e-06 -1.372371087931
H 0.814040243404 0.583410535636 -1.585578365558
H 0.10961223332 -0.411740652742 -0.441239206532
H -0.076682894015 -0.746640933395 -2.06893351676
Li 4.77e-10 -3.24e-10 3.527628795493
H 1.019497915011 -0.079666286364 -1.47609374832
N -5.563594e-06 4.34754e-07 -1.422784549687
H -0.267609544387 0.987645630481 -1.460572468658
H -0.422981806103 -0.498641322247 -2.210817344974
H -0.328829258009 -0.409344062808 -0.543659842773
Li -5.74e-10 4.5e-11 3.657215159426
H 1.003540424847 -0.142071695843 -1.165375732996
N -5.47651e-06 7.75312e-07 -1.019474955725
H -0.487636760263 -0.896280714528 -1.105370660367
H -0.157635575704 0.386092636325 -0.084256255801
H -0.358191992393 0.65224900103 -1.72291142186
Li -5.65e-10 8e-11 2.620524248153
H 0.883200924471 0.359076769719 -0.657068616356
N -4.819795e-06 -1.95955e-06 -1.030680821031
H -0.443049219309 0.718936802608 -1.609750390536
H 0.182996158159 -0.831553250019 -1.5995228759
H -0.62308089194 -0.246433094226 -0.256344915766
Li -4.97e-10 -2.02e-10 2.64932121762
H -0.167120854905 0.973079043402 -1.425485955028
N 9.1201e-07 -5.310277e-06 -1.15391063279
H -0.89199187165 -0.501251790776 -1.114115033978
H 0.611929215427 -0.446383127205 -1.842996103564
H 0.447170838685 -0.025370338759 -0.233071959619
Li 9.4e-11 -5.48e-10 2.966087885332
H 0.760945110629 -0.244675743078 -1.827568762289
N -4.152622e-06 1.335242e-06 -1.187517712682
H -0.672121120087 0.602565251265 -1.670899920828
H -0.47060276225 -0.853892115585 -0.874546287068
H 0.381836472672 0.495984054119 -0.377118385529
Li -4.28e-10 1.38e-10 3.052478794817
H -0.033261584192 -0.608429646477 -0.437375782653
N 1.81515e-07 3.320316e-06 -1.260345393187
H -0.187820289515 -0.552972741256 -2.101430285448
H -0.707170523528 0.735070022769 -1.170152672449
H 0.928249875075 0.426286228946 -1.33234246407
Li 1.9e-11 3.42e-10 3.239659097427
H 0.388179143375 0.634996349527 -0.590628484365
N -2.118367e-06 -3.465296e-06 -1.293953830992
H 0.756245890276 -0.548752723653 -1.712816637738
H -0.673665754431 -0.630468933291 -0.849838092573
H -0.470729844362 0.544273457935 -2.022463425175
Li -2.19e-10 -3.57e-10 3.326050006771
H -0.480655303406 -0.90417557691 -1.404730909839
N 2.623027e-06 4.934258e-06 -1.405980302061
H 1.012321960471 -0.151573953634 -1.379217458747
H -0.245545470516 0.515891010847 -2.255754318925
H -0.286157633691 0.539789957849 -0.584218398721
Li 2.71e-10 5.09e-10 3.614019704757
