19
Coordinates from XML
N -0.178476 -0.29116 -0.844071
C -0.503601 -0.0764024 -2.29809
H -1.01421 -0.610633 -0.325884
H 0.154298 0.586203 -0.410234
H 0.56071 -1.0058 -0.736251
H -1.30983 0.66259 -2.3363
H -0.877245 -1.03051 -2.6823
C 0.676537 0.40187 -3.1629
H 1.05909 1.35938 -2.80106
H 0.356615 0.531866 -4.19973
H 1.49022 -0.327331 -3.14558
N 0.107226 0.679531 2.94409
C -0.122737 -0.777947 2.92809
H 0.16854 1.03871 3.90585
H -0.6552 1.1844 2.47325
H 0.983538 0.925927 2.46525
H -1.06224 -0.973492 3.44837
H 0.715888 -1.25401 3.43979
H -0.17791 -1.09587 1.88519
