19
Coordinates from XML
N -0.417732104787 -0.321843236406 -3.370075528248
C -0.461410594181 0.034382704481 -1.908161044051
H -1.369059371526 -0.508492956015 -3.729473980706
H 0.156795091341 -1.167483873777 -3.523467551298
H -0.009871683538 0.450764927768 -3.922763971703
H -0.930757108681 -0.808140958086 -1.391016947844
H -1.107761967762 0.912660191688 -1.816408739252
C 0.908157036643 0.332514250872 -1.271946330967
H 1.566706680201 -0.536450436606 -1.344834342227
H 0.787273057098 0.581565926738 -0.214769893547
H 1.390515754808 1.177826325866 -1.768825247384
N -0.079317929174 -0.029934557834 3.902643081093
C 0.090892636623 0.034341520882 2.438307515386
H -0.671143467824 -0.825195444571 4.17657809862
H -0.52140969281 0.824539175525 4.266386839148
H 0.824981161369 -0.138015403328 4.380639718824
H -0.898649879829 0.148501145263 1.99181035045
H 0.56222009802 -0.896006229182 2.115717220921
H 0.7247721933 0.894173700532 2.213232171409
