19
Coordinates from XML
N 0.558244 0.599438 -3.24583
C 0.0252955 -0.553398 -2.43779
H 1.001 0.261561 -4.11694
H 1.26599 1.12698 -2.70777
H -0.203609 1.24949 -3.50226
H 0.873261 -1.21338 -2.23054
H -0.689414 -1.08236 -3.07572
C -0.656683 -0.158382 -1.11558
H 0.0437315 0.363792 -0.459187
H -1.01377 -1.04975 -0.593833
H -1.51302 0.494569 -1.30119
N -0.168174 -0.487971 2.85935
C 0.192415 0.558552 3.83513
H -0.0291329 -0.163573 1.89334
H -1.15424 -0.764772 2.95391
H 0.404081 -1.33298 2.98745
H -0.446281 1.42382 3.64812
H 1.24463 0.807376 3.68447
H 0.0237752 0.154909 4.83533
