19
Coordinates from XML
N -0.53854 0.216016 -3.36021
C 0.478556 -0.286938 -2.37099
H -0.261267 -0.0282823 -4.32585
H -0.629184 1.24411 -3.30087
H -1.46604 -0.201532 -3.17544
H 1.43638 0.1668 -2.64352
H 0.545762 -1.37026 -2.51048
C 0.160057 0.0251522 -0.897722
H 0.0976914 1.10389 -0.734845
H 0.944266 -0.373273 -0.249234
H -0.789782 -0.427247 -0.602337
N -0.196437 0.44277 3.73199
C 0.225046 -0.506985 2.68428
H -0.135324 1.41522 3.40284
H 0.393938 0.362168 4.57034
H -1.16906 0.274438 4.0211
H 1.2596 -0.277601 2.42224
H -0.436317 -0.372756 1.82617
H 0.137921 -1.51547 3.09311
