19
Coordinates from XML
N 0.374871 -0.427828 -3.2677
C -0.212721 0.519229 -2.25586
H 0.350588 -0.0126492 -4.21431
H -0.15634 -1.3144 -3.29051
H 1.3585 -0.64614 -3.03629
H -1.23684 0.731144 -2.57812
H 0.374493 1.44119 -2.30812
C -0.224808 -0.00385256 -0.808243
H -0.814646 -0.920605 -0.732377
H -0.664869 0.741454 -0.141066
H 0.790714 -0.213465 -0.463439
N 0.144181 -0.0456687 3.7731
C -0.165162 0.0524079 2.33363
H 0.305769 0.882412 4.18577
H 0.989112 -0.608703 3.93731
H -0.626655 -0.48556 4.29294
H 0.686455 0.524807 1.84051
H -1.06676 0.658523 2.22633
H -0.325292 -0.959579 1.95679
