19
Coordinates from XML
N 0.164357 1.10129 -2.46469
C 0.519622 -0.174492 -1.74904
H 1.0123 1.66057 -2.65762
H -0.47737 1.67519 -1.89238
H -0.300035 0.898115 -3.36569
H 1.033 0.112695 -0.82625
H 1.22119 -0.713105 -2.39344
C -0.675687 -1.08432 -1.41314
H -1.38488 -0.567721 -0.76178
H -0.331928 -1.98453 -0.89767
H -1.19758 -1.39027 -2.32316
N 0.0721841 -0.0824091 2.05714
C -0.0826638 0.0940861 3.51394
H 0.756726 -0.818458 1.83949
H 0.3957 0.783951 1.60699
H -0.817972 -0.347097 1.61501
H 0.89077 0.372636 3.92189
H -0.426081 -0.854685 3.93066
H -0.817914 0.884126 3.67831
