19
Coordinates from XML
N 0.164356554707 1.101291864878 -2.464691642761
C 0.519621704884 -0.17449234245 -1.749038081392
H 1.012302658479 1.660571405459 -2.657623585388
H -0.477370310101 1.675193339999 -1.892378417999
H -0.300035151598 0.898115047019 -3.365689721504
H 1.03299789117 0.112695306503 -0.826249679566
H 1.221194203908 -0.713105442306 -2.39343848904
C -0.675686503997 -1.084315370774 -1.413140152824
H -1.384883713104 -0.56772090553 -0.761780497662
H -0.331928407346 -1.984527937567 -0.897670076899
H -1.197582962843 -1.390265898346 -2.323156337088
N 0.072184146882 -0.08240911364 2.057140114141
C -0.082663823463 0.094086094173 3.513935654943
H 0.756725961712 -0.818457810205 1.839487730662
H 0.395699509492 0.783950727192 1.606986311149
H -0.817972314161 -0.34709733783 1.61500809897
H 0.8907698503 0.372635635626 3.921886100147
H -0.426081443948 -0.854684757215 3.930660047672
H -0.817914321501 0.884125581764 3.678306860396
