19
Coordinates from XML
N -1.13431 -0.515908 -1.87869
C -0.0385569 0.430001 -2.29169
H -2.01624 -0.290102 -2.36884
H -1.30597 -0.454813 -0.86108
H -0.879825 -1.49186 -2.10562
H -0.386037 1.44005 -2.05374
H 0.0667304 0.336599 -3.37693
C 1.32246 0.180051 -1.61751
H 1.24109 0.277885 -0.532197
H 2.05831 0.906304 -1.97156
H 1.69208 -0.821609 -1.85025
N -0.153384 0.0139085 3.4303
C 0.175867 -0.0157913 1.99221
H -1.17023 0.0444551 3.58139
H 0.252797 0.839053 3.89077
H 0.206547 -0.81915 3.91443
H -0.230825 0.889567 1.53777
H -0.28109 -0.909685 1.56337
H 1.26311 -0.0475037 1.89915
