19
Coordinates from XML
N -1.134312297144 -0.515908413782 -1.878685307016
C -0.038556904765 0.430001004454 -2.291691581866
H -2.016237811735 -0.290101813395 -2.368835997962
H -1.305968613484 -0.454812721336 -0.861080214249
H -0.879824825846 -1.491855761859 -2.105623436986
H -0.386037148762 1.440054742734 -2.053743657481
H 0.066730390322 0.336598781348 -3.376933738397
C 1.322462001302 0.180051207288 -1.617510811059
H 1.241085949474 0.277884557008 -0.532196802502
H 2.058308405287 0.906303581613 -1.971557774229
H 1.692083040313 -0.821608584454 -1.850253252026
N -0.15338431403 0.01390851055 3.430297273988
C 0.17586701312 -0.015791274458 1.992210633225
H -1.170230829363 0.044455113733 3.581386020391
H 0.252796604148 0.839052595436 3.890769109051
H 0.206546594275 -0.819149606106 3.914428470587
H -0.230825177521 0.889567098208 1.537772288546
H -0.281090195272 -0.909684941244 1.563368899974
H 1.263114945723 -0.047503725323 1.899152406771
