19
Coordinates from XML
N 0.158163 -0.558308 -3.05659
C -0.271393 -0.378522 -1.6251
H -0.106624 -1.49591 -3.40275
H 1.18327 -0.458972 -3.14608
H -0.289404 0.148216 -3.66425
H 0.210626 -1.17349 -1.04782
H -1.35522 -0.527653 -1.59962
C 0.0761671 0.98924 -1.01045
H 1.15637 1.15416 -1.01779
H -0.269409 1.03663 0.0252072
H -0.403448 1.79766 -1.56771
N 0.274611 0.613456 2.95409
C -0.314439 -0.702241 2.6389
H 1.047 0.841203 2.31434
H 0.648964 0.636714 3.91179
H -0.423417 1.36488 2.87637
H 0.47192 -1.45274 2.73881
H -0.69164 -0.662693 1.61522
H -1.12362 -0.884512 3.34868
