19
Coordinates from XML
N 0.234382 -0.853133 -2.848
C 0.187986 -0.224598 -1.48096
H 0.668617 -1.79047 -2.80488
H 0.787089 -0.271164 -3.49957
H -0.718428 -0.956485 -3.23557
H 1.21989 -0.175779 -1.1199
H -0.381258 -0.904744 -0.83993
C -0.442585 1.17878 -1.43331
H 0.11732 1.8767 -2.06062
H -0.437482 1.56051 -0.409335
H -1.47784 1.15051 -1.78195
N -0.446201 0.086515 3.34717
C 0.510826 -0.0988522 2.23941
H -0.10905 0.787099 4.02041
H -0.597105 -0.790575 3.86275
H -1.36167 0.404162 3.00229
H 1.45695 -0.434424 2.66816
H 0.627447 0.861999 1.73451
H 0.0977523 -0.849967 1.56342
