19
Coordinates from XML
N -0.20685 0.344872 -3.43687
C -0.513124 -0.028843 -2.0112
H -1.07666 0.556214 -3.95435
H 0.277215 -0.429134 -3.92196
H 0.401359 1.18002 -3.47347
H -1.18216 -0.894083 -2.04758
H -1.04976 0.817377 -1.57132
C 0.717699 -0.36382 -1.14967
H 1.26335 -1.21353 -1.56723
H 0.408575 -0.622429 -0.133881
H 1.39542 0.491507 -1.09294
N 0.0513528 -0.224423 3.89184
C -0.0587563 0.256854 2.50128
H 0.337069 -1.21184 3.92513
H -0.846076 -0.145066 4.38803
H 0.746916 0.317067 4.42184
H -0.80806 -0.35433 1.99474
H 0.920457 0.147045 2.03134
H -0.36336 1.30468 2.53371
