19
Coordinates from XML
N 1.140791048086 0.546990887195 -2.746682568908
C 0.132213677499 -0.604010814013 -2.525167603723
H 2.103929872061 0.203751587768 -2.728281609467
H 1.038444083764 1.257322483463 -2.017735946189
H 0.97688706886 0.997045520438 -3.650561113447
H 0.394003771525 -1.048002920727 -1.56730662135
H 0.327990338895 -1.326408808358 -3.314482012083
C -1.294589566569 -0.081161969683 -2.554565863541
H -1.484109290472 0.644948900225 -1.762518982493
H -1.978078685449 -0.91500453188 -2.396168024641
H -1.550235669687 0.36596415813 -3.51644293722
N -0.756120990089 0.152832288401 3.71357097737
C 0.738134068422 -0.148739078731 3.814779290205
H -0.929633048716 0.938703870708 3.082180972557
H -1.144681397854 0.39316152506 4.628734347944
H -1.270107502277 -0.656475073344 3.356572238651
H 1.24144879184 0.733663628263 4.196197706756
H 1.106264088162 -0.397497268957 2.825225105794
H 0.874511734886 -0.985515714992 4.491893336676
