19
Coordinates from XML
N 1.140791048086 0.546990887195 -2.935415581883
C 0.132213677499 -0.604010814013 -2.713900616698
H 2.103929872061 0.203751587768 -2.917014622442
H 1.038444083764 1.257322483463 -2.206468959163
H 0.97688706886 0.997045520438 -3.839294126422
H 0.394003771525 -1.048002920727 -1.756039634325
H 0.327990338895 -1.326408808358 -3.503215025058
C -1.294589566569 -0.081161969683 -2.743298876516
H -1.484109290472 0.644948900225 -1.951251995467
H -1.978078685449 -0.91500453188 -2.584901037616
H -1.550235669687 0.36596415813 -3.705175950195
N -0.756120990089 0.152832288401 3.984837964395
C 0.738134068422 -0.148739078731 4.08604627723
H -0.929633048716 0.938703870708 3.353447959582
H -1.144681397854 0.39316152506 4.90000133497
H -1.270107502277 -0.656475073344 3.627839225676
H 1.24144879184 0.733663628263 4.467464693781
H 1.106264088162 -0.397497268957 3.09649209282
H 0.874511734886 -0.985515714992 4.763160323701
