19
Coordinates from XML
N 1.14079 0.546991 -2.93542
C 0.132214 -0.604011 -2.7139
H 2.10393 0.203752 -2.91701
H 1.03844 1.25732 -2.20647
H 0.976887 0.997046 -3.83929
H 0.394004 -1.048 -1.75604
H 0.32799 -1.32641 -3.50322
C -1.29459 -0.081162 -2.7433
H -1.48411 0.644949 -1.95125
H -1.97808 -0.915005 -2.5849
H -1.55024 0.365964 -3.70518
N -0.756121 0.152832 3.98484
C 0.738134 -0.148739 4.08605
H -0.929633 0.938704 3.35345
H -1.14468 0.393162 4.9
H -1.27011 -0.656475 3.62784
H 1.24145 0.733664 4.46746
H 1.10626 -0.397497 3.09649
H 0.874512 -0.985516 4.76316
