19
Coordinates from XML
N 1.14079 0.546991 -2.97644
C 0.132214 -0.604011 -2.75493
H 2.10393 0.203752 -2.95804
H 1.03844 1.25732 -2.2475
H 0.976887 0.997046 -3.88032
H 0.394004 -1.048 -1.79707
H 0.32799 -1.32641 -3.54424
C -1.29459 -0.081162 -2.78433
H -1.48411 0.644949 -1.99228
H -1.97808 -0.915005 -2.62593
H -1.55024 0.365964 -3.7462
N -0.756121 0.152832 4.04381
C 0.738134 -0.148739 4.14502
H -0.929633 0.938704 3.41242
H -1.14468 0.393162 4.95897
H -1.27011 -0.656475 3.68681
H 1.24145 0.733664 4.52644
H 1.10626 -0.397497 3.15546
H 0.874512 -0.985516 4.82213
