19
Coordinates from XML
N 1.140791048086 0.546990887195 -3.009267630438
C 0.132213677499 -0.604010814013 -2.787752665253
H 2.103929872061 0.203751587768 -2.990866670997
H 1.038444083764 1.257322483463 -2.280321007719
H 0.97688706886 0.997045520438 -3.913146174977
H 0.394003771525 -1.048002920727 -1.82989168288
H 0.327990338895 -1.326408808358 -3.577067073613
C -1.294589566569 -0.081161969683 -2.817150925071
H -1.484109290472 0.644948900225 -2.025104044022
H -1.978078685449 -0.91500453188 -2.658753086171
H -1.550235669687 0.36596415813 -3.77902799875
N -0.756120990089 0.152832288401 4.09098591584
C 0.738134068422 -0.148739078731 4.192194228675
H -0.929633048716 0.938703870708 3.459595911027
H -1.144681397854 0.39316152506 5.006149286414
H -1.270107502277 -0.656475073344 3.733987177121
H 1.24144879184 0.733663628263 4.573612645226
H 1.106264088162 -0.397497268957 3.202640044264
H 0.874511734886 -0.985515714992 4.869308275146
