19
Coordinates from XML
N 1.14079 0.546991 -3.0503
C 0.132214 -0.604011 -2.82878
H 2.10393 0.203752 -3.0319
H 1.03844 1.25732 -2.32135
H 0.976887 0.997046 -3.95418
H 0.394004 -1.048 -1.87092
H 0.32799 -1.32641 -3.6181
C -1.29459 -0.081162 -2.85818
H -1.48411 0.644949 -2.06613
H -1.97808 -0.915005 -2.69978
H -1.55024 0.365964 -3.82006
N -0.756121 0.152832 4.14996
C 0.738134 -0.148739 4.25117
H -0.929633 0.938704 3.51857
H -1.14468 0.393162 5.06512
H -1.27011 -0.656475 3.79296
H 1.24145 0.733664 4.63258
H 1.10626 -0.397497 3.26161
H 0.874512 -0.985516 4.92828
