19
Coordinates from XML
N 1.140791048086 0.546990887195 -3.156971727549
C 0.132213677499 -0.604010814013 -2.935456762364
H 2.103929872061 0.203751587768 -3.138570768108
H 1.038444083764 1.257322483463 -2.428025104829
H 0.97688706886 0.997045520438 -4.060850272088
H 0.394003771525 -1.048002920727 -1.977595779991
H 0.327990338895 -1.326408808358 -3.724771170724
C -1.294589566569 -0.081161969683 -2.964855022182
H -1.484109290472 0.644948900225 -2.172808141133
H -1.978078685449 -0.91500453188 -2.806457183282
H -1.550235669687 0.36596415813 -3.926732095861
N -0.756120990089 0.152832288401 4.303281818729
C 0.738134068422 -0.148739078731 4.404490131564
H -0.929633048716 0.938703870708 3.671891813916
H -1.144681397854 0.39316152506 5.218445189304
H -1.270107502277 -0.656475073344 3.94628308001
H 1.24144879184 0.733663628263 4.785908548115
H 1.106264088162 -0.397497268957 3.414935947154
H 0.874511734886 -0.985515714992 5.081604178035
