19
Coordinates from XML
N 1.140791048086 0.546990887195 -3.198000643413
C 0.132213677499 -0.604010814013 -2.976485678228
H 2.103929872061 0.203751587768 -3.179599683972
H 1.038444083764 1.257322483463 -2.469054020693
H 0.97688706886 0.997045520438 -4.101879187952
H 0.394003771525 -1.048002920727 -2.018624695855
H 0.327990338895 -1.326408808358 -3.765800086588
C -1.294589566569 -0.081161969683 -3.005883938046
H -1.484109290472 0.644948900225 -2.213837056997
H -1.978078685449 -0.91500453188 -2.847486099146
H -1.550235669687 0.36596415813 -3.967761011725
N -0.756120990089 0.152832288401 4.362252902865
C 0.738134068422 -0.148739078731 4.4634612157
H -0.929633048716 0.938703870708 3.730862898052
H -1.144681397854 0.39316152506 5.27741627344
H -1.270107502277 -0.656475073344 4.005254164146
H 1.24144879184 0.733663628263 4.844879632251
H 1.106264088162 -0.397497268957 3.47390703129
H 0.874511734886 -0.985515714992 5.140575262171
