19
Coordinates from XML
N 1.14079 0.546991 -3.198
C 0.132214 -0.604011 -2.97649
H 2.10393 0.203752 -3.1796
H 1.03844 1.25732 -2.46905
H 0.976887 0.997046 -4.10188
H 0.394004 -1.048 -2.01862
H 0.32799 -1.32641 -3.7658
C -1.29459 -0.081162 -3.00588
H -1.48411 0.644949 -2.21384
H -1.97808 -0.915005 -2.84749
H -1.55024 0.365964 -3.96776
N -0.756121 0.152832 4.36225
C 0.738134 -0.148739 4.46346
H -0.929633 0.938704 3.73086
H -1.14468 0.393162 5.27742
H -1.27011 -0.656475 4.00525
H 1.24145 0.733664 4.84488
H 1.10626 -0.397497 3.47391
H 0.874512 -0.985516 5.14058
