19
Coordinates from XML
N 1.14079 0.546991 -3.30468
C 0.132214 -0.604011 -3.08316
H 2.10393 0.203752 -3.28627
H 1.03844 1.25732 -2.57573
H 0.976887 0.997046 -4.20855
H 0.394004 -1.048 -2.1253
H 0.32799 -1.32641 -3.87248
C -1.29459 -0.081162 -3.11256
H -1.48411 0.644949 -2.32051
H -1.97808 -0.915005 -2.95416
H -1.55024 0.365964 -4.07444
N -0.756121 0.152832 4.51558
C 0.738134 -0.148739 4.61679
H -0.929633 0.938704 3.88419
H -1.14468 0.393162 5.43074
H -1.27011 -0.656475 4.15858
H 1.24145 0.733664 4.9982
H 1.10626 -0.397497 3.62723
H 0.874512 -0.985516 5.2939
