19
Coordinates from XML
N 1.14079 0.546991 -3.3375
C 0.132214 -0.604011 -3.11598
H 2.10393 0.203752 -3.3191
H 1.03844 1.25732 -2.60855
H 0.976887 0.997046 -4.24138
H 0.394004 -1.048 -2.15812
H 0.32799 -1.32641 -3.9053
C -1.29459 -0.081162 -3.14538
H -1.48411 0.644949 -2.35334
H -1.97808 -0.915005 -2.98698
H -1.55024 0.365964 -4.10726
N -0.756121 0.152832 4.56275
C 0.738134 -0.148739 4.66396
H -0.929633 0.938704 3.93136
H -1.14468 0.393162 5.47792
H -1.27011 -0.656475 4.20576
H 1.24145 0.733664 5.04538
H 1.10626 -0.397497 3.67441
H 0.874512 -0.985516 5.34108
