6
Coordinates from XML
O -0.008100333312 -0.072597247468 -1.468120586072
H 0.779266584836 0.479682739193 -1.455403568329
H -0.746088681789 0.544238787007 -1.470962079536
O 0.016141645987 -0.040001184902 1.511674012765
H 0.665079585186 0.399456332351 0.954109476952
H -0.825878955808 0.363640973557 1.281031683462
