6
Coordinates from XML
O -0.075990984634 -0.286966003612 -2.827112284834
H 0.598297794366 0.379967724426 -2.987285987169
H -0.899440798291 0.114758546831 -3.119805571329
O 0.126712650366 0.259023820814 2.890889111002
H -0.819122158251 0.149894138817 3.027303176683
H 0.315275519325 -0.201157691986 2.067603868983
