6
Coordinates from XML
O -0.225315547241 -0.134947819209 -2.963821721715
H 0.445636254846 0.482684101571 -2.658083173753
H -0.486493617584 0.18878666971 -3.831060769647
O 0.261113788123 0.062789544807 3.016672628064
H 0.03313886584 0.372282882846 2.134990781524
H -0.560425563943 0.101450524419 3.515370925298
