6
Coordinates from XML
O 0.222387312065 -0.133371769472 -2.946368525334
H -0.41122182072 0.585427757304 -2.862772609416
H -0.307156149663 -0.936197470553 -2.933095024456
O -0.155680324255 0.198485132889 2.915736013417
H -0.838090512828 -0.468285183188 2.793853897706
H 0.497780178765 -0.214341432423 3.488173929671
