6
Coordinates from XML
O -0.006745713523 0.059937074231 -2.757515565424
H 0.107745321743 0.138917767906 -1.805793219952
H -0.363056586283 -0.822973932604 -2.894015697155
O 0.041990392728 0.024002217491 2.75984557714
H -0.468663379084 -0.786060307712 2.8501395448
H 0.164616008293 0.137938999754 1.812690395528
