6
Coordinates from XML
O 0.297124484739 -0.176294429583 -2.662676028431
H -0.394708168078 -0.844049063529 -2.63832650397
H -0.162229866277 0.653948211635 -2.820195255529
O -0.262181529672 0.225571820529 2.673596516063
H 0.174613050882 -0.252512134439 3.384770050723
H -0.172245070825 -0.339454967566 1.900435645283
