6
Coordinates from XML
O -0.069193370399 0.108327600882 -2.757148113418
H -0.753384834463 -0.511522186251 -3.026944058334
H 0.755143184533 -0.381801603711 -2.830388655531
O 0.078262870002 -0.002751557588 2.822307116109
H 0.661391024466 -0.473887452011 2.21971762528
H -0.807088914796 -0.308357179482 2.603494431328
