6
Coordinates from XML
O -0.206314325922 -0.138206784546 -3.257405967776
H 0.419859237206 -0.769606530118 -3.623961011571
H 0.300377246093 0.376194469716 -2.621971808746
O 0.137195687269 0.209705493674 3.236336221043
H 0.799527727398 -0.359192067903 2.832859576055
H -0.422801257291 -0.382132270719 3.747465414809
