6
Coordinates from XML
O 0.032111548202 -0.031859718524 -2.585211607464
H 0.789311922765 -0.376900031079 -3.067618433155
H -0.195198765439 0.789514018991 -3.031077926705
O -0.116334029205 -0.019348847566 2.663742807609
H 0.459034284381 -0.438282691308 2.016775027663
H 0.283524450352 0.838385808261 2.835574197403
