6
Coordinates from XML
O 0.09275909355 0.273322340791 -2.407476852271
H -0.78474726755 0.005842028665 -2.696541618115
H 0.690132823134 -0.053347606197 -3.086853730696
O -0.092509562908 -0.303692985523 2.460046203559
H -0.696092831333 0.443706462168 2.506980984572
H 0.786747043375 0.085803286613 2.442100610788
