6
Coordinates from XML
O 0.318714666843 -0.108943691128 -2.983901982272
H -0.475789513249 -0.080516959838 -3.525267476891
H 0.15955314423 0.519298485107 -2.273197439077
O -0.319047979134 0.06458300003 3.011118797725
H -0.193845889398 0.672493631693 2.276346267865
H 0.515372166356 -0.407238797582 3.090168036169
