6
Coordinates from XML
O 0.109730643695 0.005300430901 -2.84702230456
H -0.622788809498 -0.394756098653 -2.369014361264
H 0.884449376906 -0.16062571805 -2.301677489323
O -0.159679949345 0.068681350171 2.805022223114
H -0.256794987455 -0.80627136945 2.417532897066
H 0.787866147904 0.187508633477 2.919730724673
