6
Coordinates from XML
O -0.101119018498 -0.199435762074 -2.806047181994
H 0.466440119107 0.576971987446 -2.819802246766
H -0.872740204752 0.063984224569 -2.295819560671
O 0.169363045734 0.140054604832 2.745750055919
H -0.537684252347 -0.51116633164 2.71232880253
H -0.139097897531 0.812632176749 3.360252152119
