6
Coordinates from XML
O -0.305121692662 0.014750787853 -3.045136963688
H -0.212534433622 -0.93604759382 -3.157081623548
H 0.565050760533 0.320204615563 -2.771971389652
O 0.298747473237 0.066091560175 3.041665711018
H 0.18581557754 -0.735057006166 3.56178966892
H -0.437168416528 0.067873255587 2.422354643174
