6
Coordinates from XML
O 0.126856856797 0.2480210023 -2.634982334374
H 0.616592257267 0.053603828019 -1.830319193755
H -0.36411700274 -0.555931503643 -2.829215718322
O -0.177874153397 -0.213818680395 2.635589869817
H -0.15245468682 -0.014803723049 1.694915395053
H 0.709660951541 -0.02568426988 2.954977488679
