6
Coordinates from XML
O 0.179305367665 0.160411514358 -2.447215633666
H 0.184470137461 -0.765207940994 -2.708603313231
H -0.740310124241 0.434068193292 -2.514602124316
O -0.128664312584 -0.137449859759 2.4015448391
H -0.613521262195 -0.588920799524 3.098831938479
H 0.365650955663 0.555642425939 2.849202151208
