6
Coordinates from XML
O -0.256146589374 -0.102302647766 -2.62605596077
H -0.09563723109 -0.699021515299 -3.363134592284
H 0.128268973297 0.737120085159 -2.895714486734
O 0.286207643822 0.110937610079 2.671098152659
H -0.359099894703 0.461095418394 3.292458965712
H -0.150622596286 -0.636237106379 2.251537841841
