6
Coordinates from XML
O -0.104800123916 -0.125065093009 -2.327067820886
H 0.817366135552 0.130898487095 -2.423055349024
H -0.607567377636 0.612843105806 -2.684612431679
O 0.090678602712 0.041857788508 2.411090028685
H 0.548871071339 0.803218650978 2.042972019356
H -0.534551040052 -0.226399939594 1.731202350371
