6
Coordinates from XML
O -0.088742917636 0.17389326448 -2.321772140556
H 0.016883369451 -0.737867559088 -2.034271083022
H 0.629913294033 0.324992141094 -2.942919424954
O 0.013688914507 -0.141751974449 2.282629820572
H 0.525036213104 -0.768915970731 2.802544075026
H 0.019328618237 0.671685791665 2.795863455869
