6
Coordinates from XML
O 0.265849799279 0.243730411349 -2.421478335232
H -0.666634999627 0.104362529192 -2.61166314859
H 0.609119370951 -0.627509218794 -2.201867137812
O -0.29386916768 -0.206151037716 2.434256275419
H 0.348264062068 -0.667440143931 1.886534771605
H 0.153939276215 0.594174903393 2.724200331341
