6
Coordinates from XML
O 0.129961549642 -0.311379559323 -2.526407149159
H -0.133225246634 -0.417013993099 -3.445480403403
H -0.061540432699 0.6073085193 -2.315549910831
O -0.121245884907 0.3276645794 2.579859478514
H 0.762307351137 -0.052388581066 2.576006648973
H -0.705865595921 -0.396361031457 2.33669640912
