6
Coordinates from XML
O 0.07708267093 -0.000596428148 -2.499520079242
H -0.252419860788 -0.001035164941 -1.595888816447
H -0.697418884827 0.155943838755 -3.047939676783
O 0.040296412443 -0.020157400413 2.512074755387
H -0.322403301806 0.837226287769 2.27028207865
H -0.590649185323 -0.66275664169 2.174294593491
