6
Coordinates from XML
O 0.14810768563 -0.31625004824 -3.36038704396
H -0.408078996847 0.051740845832 -2.667306495889
H 0.417371991057 0.438697252928 -3.89205693805
O -0.169276885201 0.29282307443 3.314626059671
H -0.019117826342 0.34647980669 4.263148480136
H 0.345795391382 -0.465114830602 3.022474982294
