6
Coordinates from XML
O -0.322605832313 -0.106103228672 -2.490335497144
H 0.244160292468 0.669945969291 -2.449772310112
H 0.139300172758 -0.723196270139 -3.06562724109
O 0.314421344988 0.127535071738 2.489761893442
H -0.626698329442 0.302888141895 2.396667161118
H 0.373131617367 -0.589776743153 3.127835897092
