6
Coordinates from XML
O 0.296770200707 0.030532007046 -2.623219511894
H -0.590782046703 0.324879646092 -2.397981758606
H 0.348847489681 -0.874740671078 -2.302453391155
O -0.304145179557 0.03931381341 2.583363307869
H -0.205925646096 -0.912205681957 2.482938494289
H 0.564906469338 0.353562850607 2.850043536186
