6
Coordinates from XML
O -0.066482117487 0.24502806808 -3.333397363056
H -0.542605625571 -0.383711493127 -2.782838974488
H 0.856720700326 -0.017682469403 -3.271742674047
O 0.033177359858 -0.223998039308 3.357334192425
H 0.457369360298 0.620418088493 3.17804637948
H -0.242913762888 -0.552785943634 2.496640416504
