6
Coordinates from XML
O 0.202337869902 0.022543896296 -2.505785584955
H 0.783353406595 -0.203681728194 -3.238154674243
H -0.617210109317 0.312623323263 -2.917266575779
O -0.251895796679 -0.040227699252 2.581263654696
H 0.508408897386 -0.275374352963 3.121415849388
H 0.111968066474 0.447087543579 1.836113660939
