6
Coordinates from XML
O 0.094169294015 0.022136652031 -2.074684521836
H -0.803174628673 -0.32251600085 -2.041367810159
H 0.016848929046 0.879621972434 -2.503475912204
O -0.001079498598 -0.100040398774 2.077310922809
H -0.961351206034 -0.059245725441 2.040764889851
H 0.27027429902 0.738528747829 2.462395943141
