6
Coordinates from XML
O -0.122126385407 -0.197857866227 -2.731179860311
H 0.014945120725 0.524962077223 -3.350747694819
H 0.730379924929 -0.638866680802 -2.669004412545
O 0.03831088458 0.239787557693 2.7501341428
H 0.116409833299 -0.205720861586 3.598982994222
H 0.468477942368 -0.345829165914 2.119950895302
