6
Coordinates from XML
O -0.27489534841 -0.26245531168 -2.968038298693
H 0.630811725554 -0.159670448565 -3.275042432358
H -0.402775700351 0.442356666061 -2.326159601726
O 0.281197572553 0.25973440804 2.950452113588
H 0.331272127585 -0.700294027744 2.919476132202
H -0.659329023345 0.460790525519 2.960831421434
