6
Coordinates from XML
O 0.284216979395 -0.143123696306 -3.398075018585
H 0.476593194278 0.693569521418 -3.831730897551
H -0.584734547603 -0.025801981018 -3.002751823148
O -0.307897817824 0.072563071977 3.414558106488
H 0.243898955232 0.711198018965 3.875846840071
H 0.240074488662 -0.259117246848 2.697037314157
