6
Coordinates from XML
O -0.262618594873 0.119363661655 -2.1166324181
H 0.330989145284 -0.622363904489 -1.966327267
H 0.274665665278 0.784139142784 -2.557677487775
O 0.216482821396 -0.157174714863 2.08578485463
H -0.406032337924 -0.3044496985 2.80405118797
H 0.532585732217 0.742763313313 2.209526784524
