6
Coordinates from XML
O -0.131107464685 0.061372468401 -2.395582145115
H 0.426988622746 0.843347111935 -2.349042011197
H 0.345650665167 -0.615501629388 -1.906026518692
O 0.044826292259 -0.100270092791 2.41449859587
H 0.985705913883 -0.017832291873 2.23264393799
H -0.389000382914 0.407320335612 1.722206791136
