6
Coordinates from XML
O -0.043478664315 -0.189843863742 -2.318560166739
H 0.700217469533 0.420092381058 -2.322485441191
H -0.102170011568 -0.51828810761 -3.220669514007
O -0.031106639132 0.228583007547 2.367208111665
H 0.917318318504 0.151208991321 2.227119099445
H -0.331642885722 -0.667831589162 2.543957666953
