6
Coordinates from XML
O -0.011872710747 -0.304458591225 -2.624548484963
H 0.883829758006 0.044995410351 -2.651391701059
H -0.580136377945 0.45014071577 -2.805595054731
O -0.027374959555 0.278813906628 2.686621480013
H -0.427531406735 -0.521885626856 2.334660338893
H 0.746727035603 0.433749255124 2.13718294034
