6
Coordinates from XML
O 0.107435144117 0.238935944057 -3.032412979346
H -0.659840575758 -0.297413193884 -2.811643547763
H 0.723890428609 -0.367806703869 -3.453088402219
O -0.130498577692 -0.181603980187 3.100620132144
H 0.738690109568 0.203153396756 2.953669947299
H -0.436706534908 -0.447833370264 2.228564991229
