6
Coordinates from XML
O -0.006792258241 0.067890087168 -3.043730852807
H 0.486923736587 0.462751130115 -3.768610734728
H 0.3471953072 -0.822093601993 -2.955734224798
O -0.104476929742 -0.028691948356 3.070370549699
H 0.47238755052 0.361250687516 3.733916842086
H 0.459416164768 -0.624011123871 2.567636795882
