6
Coordinates from XML
O -0.129388171341 -0.077086563391 -2.450292203048
H 0.477858181633 0.617473007168 -2.178335515793
H 0.398245275082 -0.881233423116 -2.458797743081
O 0.028960619726 0.122927901155 2.398838824602
H -0.030461620316 -0.834685018721 2.466426272206
H 0.748216285964 0.370910138227 2.98730944127
