6
Coordinates from XML
O -0.127584118564 0.137139167288 -3.463333839766
H -0.039447128696 -0.816134680805 -3.556190781129
H 0.56117605566 0.392564195588 -2.842456196972
O 0.074574626372 -0.098616323938 3.498568276001
H -0.186153735371 0.585095151705 2.874324005337
H 0.5057239174 -0.772910145697 2.965126900794
