6
Coordinates from XML
O -0.219664677695 -0.273760911427 -2.294501655664
H -0.732459261493 0.476865508308 -1.980299073206
H 0.698765858766 -0.026619215019 -2.151226041575
O 0.253739421037 0.250024963947 2.263034027978
H -0.606569310035 0.618602855144 2.484711260371
H 0.099471808576 -0.692142437229 2.146227941206
