6
Coordinates from XML
O 0.150417842084 -0.20029398283 -2.523418794095
H 0.397369716342 0.725155525475 -2.435785755933
H -0.801650213362 -0.218870068795 -2.387982769232
O -0.11627523729 0.159140446622 2.44637982598
H -0.136546373124 -0.679494663737 2.916913355844
H -0.001041044522 0.826345690965 3.129519498916
