6
Coordinates from XML
O 0.149071937818 0.064760843779 -2.389228626906
H -0.761938710687 -0.193849533064 -2.220997115892
H 0.653506801415 -0.75291918053 -2.343770775736
O -0.154537713924 0.053862535983 2.368247339937
H 0.761173711214 -0.123470449336 2.603081681952
H -0.565995968744 -0.812399956462 2.294674459578
