6
Coordinates from XML
O 0.25691273625 0.204984944509 -3.119841798705
H -0.292666345989 -0.038565957881 -2.368997367208
H 0.095726408123 -0.476556264776 -3.779115730899
O -0.264978623508 -0.163273829016 3.071149473799
H -0.28328073402 0.419448309793 3.836147193856
H 0.608232155912 -0.566311758924 3.084748435534
