6
Coordinates from XML
O -0.093588602571 0.373089587397 -2.875825026724
H -0.460837240753 -0.161301367777 -3.586230766271
H 0.478725459011 -0.22361388992 -2.38437498341
O 0.103769731044 -0.371499124288 2.891484084515
H 0.620511352149 0.435412951076 2.975105670544
H -0.799981467506 -0.075739497089 2.746979468536
