6
Coordinates from XML
O -0.003824254366 0.146329644681 -2.934394490334
H -0.955230679003 0.199724227812 -3.06514770693
H 0.168561954318 -0.776894477459 -2.726881152556
O 0.110139574288 -0.088384845718 2.913739593796
H -0.654183749154 0.408255421868 2.606689318018
H -0.246448804185 -0.750711181116 3.513147738365
