6
Coordinates from XML
O -0.089210135127 -0.098713882275 -3.507421556861
H 0.501054696812 0.479967228548 -3.015652129026
H -0.429342470776 -0.720139776228 -2.856836110844
O 0.091563471402 0.144291540992 3.489925409589
H -0.599896994303 0.231527034635 2.827057426492
H 0.49083561381 -0.714705005582 3.323107367188
