6
Coordinates from XML
O -0.159437494201 -0.210777369243 -2.195777882344
H 0.656275291104 -0.718072045835 -2.244627989729
H 0.119667786444 0.70922658389 -2.167237760834
O 0.076522161536 0.240314977012 2.164527710416
H -0.406680192303 -0.569236314018 2.354958176559
H 0.946663614115 0.109298505819 2.552870480118
