6
Coordinates from XML
O 0.067569682697 -0.005796880219 -2.591102025018
H -0.661858455878 0.611023193391 -2.478900610379
H -0.332245186673 -0.878744914516 -2.534256887601
O 0.057042119016 0.042583060966 2.584950277217
H -0.307016282164 -0.732391351359 3.023125711
H -0.676559796707 0.416289689048 2.087664488785
