6
Coordinates from XML
O -0.220551035968 0.193221000457 -3.16801398527
H -0.703891402381 -0.636811189419 -3.218513727503
H 0.708053657292 -0.057133143839 -3.179748382966
O 0.249653688484 -0.125877503766 3.207860876689
H 0.197291110094 -0.24905875493 2.255387197396
H -0.663333579635 -0.125787074104 3.510475830176
