6
Coordinates from XML
O 0.002227153349 0.046444242167 -2.495503308009
H -0.00023080738 -0.710294804658 -1.901818590807
H -0.837143427233 0.489390156572 -2.339370302641
O 0.110093805191 -0.022980638617 2.45336578153
H -0.404069044959 -0.834400581687 2.40482909938
H -0.541171841496 0.682920814385 2.505112917633
