6
Coordinates from XML
O 0.210701387986 -0.155332641757 -2.691297446497
H -0.32797350836 -0.465387182357 -3.425339071951
H 0.46704501145 0.740395831311 -2.930211697319
O -0.257743193291 0.139237124998 2.737945905118
H 0.488758556423 0.726179882556 2.890769028449
H 0.118757527943 -0.745741000358 2.724436850666
