6
Coordinates from XML
O -0.256558460682 0.078568344031 -3.348874457619
H -0.254525687671 -0.080855304163 -4.297400439461
H 0.347171654661 -0.57536810749 -2.984184678219
O 0.278603449908 -0.000878111548 3.370455055467
H -0.186592577959 -0.590047969652 2.769128934332
H -0.25592336564 0.013271013578 4.169956434902
