6
Coordinates from XML
O 0.174449525193 -0.058312493934 -2.579885764371
H -0.581397704746 -0.100547994141 -1.986562330217
H 0.732884669125 0.639299008939 -2.22406284341
O -0.218285514989 -0.006302849152 2.549021223265
H -0.010023396429 0.932245736369 2.519440611547
H 0.554245400989 -0.445504366353 2.181027227191
