6
Coordinates from XML
O 0.039404400864 0.282397751502 -3.167234695804
H -0.747469087651 0.446513308293 -3.695456019768
H 0.127594006143 -0.675020694636 -3.140889249979
O 0.03866451025 -0.289645597548 3.185200189678
H -0.376379353229 -0.022707769503 4.010793526223
H -0.242755837665 0.366243732209 2.540426318548
