6
Coordinates from XML
O -0.279371172477 -0.151382927891 -2.44861883152
H -0.0419110795 0.152305230415 -1.567422044901
H 0.558163284058 -0.341505737502 -2.881644144154
O 0.24751246737 0.197188820935 2.39585543747
H -0.026514017697 -0.617640408943 1.964480447907
H 0.015882582407 0.07986815303 3.321979094048
