6
Coordinates from XML
O 0.117996262351 0.099951475896 -2.563851693774
H -0.493644762934 -0.588118117597 -2.842378282628
H 0.900845244777 -0.026133218989 -3.108251997255
O -0.188631247558 -0.030782039007 2.611526835027
H 0.632251767409 0.470258088046 2.59631378726
H 0.081576224343 -0.953775909729 2.597677404055
