6
Coordinates from XML
O -0.190993081728 0.221238934041 -2.868154917631
H 0.521465591698 -0.422830101732 -2.81620026608
H -0.599781749313 0.212581572246 -1.997558314525
O 0.22721313516 -0.222717060232 2.819994994642
H -0.652326445755 -0.47325999112 2.522068937729
H 0.155804071252 0.706967455907 3.056022569393
