6
Coordinates from XML
O -0.064589553393 -0.033282475353 -3.396295916802
H -0.285756017294 -0.852900871877 -2.944153627999
H 0.790542935209 0.225740217057 -3.040237997703
O 0.005386341122 0.122107075363 3.330487096434
H 0.199371557953 -0.140485664984 4.235217088403
H 0.235439465447 -0.642064540551 2.793608272658
