6
Coordinates from XML
O 0.037234618727 -0.065295202098 -2.558043996728
H 0.969177675419 0.012902649324 -2.782741137601
H -0.395129657381 0.651456122566 -3.031805794828
O -0.119447504626 -0.015274311818 2.590670639756
H 0.035912954337 0.87280834528 2.255567831721
H 0.694817187054 -0.258470463669 3.041170599366
