6
Coordinates from XML
O 0.212073510214 0.079636439629 -2.816810949158
H 0.316928924023 -0.753321379615 -2.347440963374
H -0.471697411681 -0.087186186042 -3.472363470268
O -0.219780601824 0.022694965364 2.80425142527
H -0.279964807059 -0.926445827737 2.660615822746
H 0.557050431439 0.142879736346 3.358517369184
