6
Coordinates from XML
O 0.121178034948 0.352652313834 -2.570834517638
H -0.653102461852 -0.1320776537 -2.871912814515
H 0.789213962462 -0.319805356496 -2.407585471192
O -0.155781529236 -0.339306536566 2.577603898559
H 0.115742289404 0.205471224058 1.832880072271
H 0.297328775389 0.034604616147 3.339183225825
