6
Coordinates from XML
O -0.119409734737 -0.127303426155 -2.780237426097
H -0.470121689127 0.138368217415 -3.635539286759
H 0.828710088452 -0.216160998721 -2.915495337782
O 0.087242015456 0.154887313031 2.889347373805
H -0.674702356056 -0.284920714835 2.500591353469
H 0.826639005188 -0.075062805657 2.318789222088
