6
Coordinates from XML
O -0.020968367831 -0.380459499283 -2.854010149406
H 0.417458169514 0.301444215239 -3.371611410487
H -0.59757313441 0.09640696615 -2.249653559879
O 0.048012553442 0.378120449732 2.852029764515
H 0.603738951699 -0.406890159602 2.858963992209
H -0.852834837868 0.046161391977 2.793731123505
