6
Coordinates from XML
O 0.197685299551 -0.242473999802 -2.791173931067
H 0.647690263461 0.575703330422 -2.560516265329
H -0.503273512555 0.019540082973 -3.395431272072
O -0.243695434877 0.195029184909 2.789441866094
H 0.537309676367 0.753328209352 2.730664442566
H 0.048487808968 -0.595587980667 3.252772222872
