6
Coordinates from XML
O -0.250118648373 0.025062128735 -2.992999498223
H 0.655966213874 -0.28965365115 -2.921684911368
H -0.199175108434 0.972058497138 -2.832611830463
O 0.222322767859 -0.120211079763 2.987256165872
H 0.69347377494 0.708045364393 2.856376216147
H -0.709124085732 0.119632690094 2.989071377927
