6
Coordinates from XML
O 0.059748449506 -0.195889742329 -2.64877537137
H -0.019869782567 0.643498284612 -2.185946842271
H -0.339004335362 -0.844327024263 -2.060857963941
O -0.019518312139 0.249245374129 2.587659346207
H -0.855018328178 -0.164852973123 2.823421624789
H 0.575410971894 -0.481110882986 2.393338851422
