6
Coordinates from XML
O -0.185605629611 0.244463880509 -2.567698178348
H 0.040861738059 -0.685459198956 -2.47242400735
H 0.626376745988 0.720940103584 -2.3707804276
O 0.120829657703 -0.282114334316 2.567819573002
H -0.567769412128 0.321993695017 2.274551129553
H 0.928572608861 0.240065424436 2.566726684147
