6
Coordinates from XML
O -0.275812160213 0.188860082955 -2.849073433709
H -0.193629517376 -0.145355584336 -3.747220120477
H 0.238865151079 -0.417800892138 -2.308526214181
O 0.30682295706 -0.138520052269 2.880654914455
H -0.326469471609 -0.859021531337 2.950939254465
H -0.210930011962 0.623245190088 2.603586062714
