6
Coordinates from XML
O -0.019026026995 0.047746742052 -3.287013378812
H 0.712759986896 0.171626379384 -2.675241660498
H -0.056148261647 -0.900526191969 -3.443608245576
O -0.066724421503 0.043863188116 3.256868687834
H 0.874429608282 0.185793141928 3.395456387257
H -0.170119488525 -0.910809400577 3.201811640022
