6
Coordinates from XML
O -1.462413076766 -0.045017874699 0.326582442616
H -0.519413076766 -0.111017874699 0.030582442616
H -1.904413076766 -0.716017874699 -0.163417557384
O 1.370586923234 0.070982125301 -0.280417557384
H 1.801586923234 0.705982125301 -0.863417557384
H 2.079586923234 -0.291017874699 0.263582442616
