6
Coordinates from XML
O -1.60283320452 -0.046752495022 0.359680095258
H -0.67183320452 -0.097752495022 0.081680095258
H -2.04083320452 -0.740752495022 -0.148319904742
O 1.533334068208 0.045185686796 -0.343676268378
H 1.767334068208 0.930185686796 -0.653676268378
H 2.048334068208 -0.066814313204 0.466323731622
