6
Coordinates from XML
O -1.721091386338 -0.054417949568 0.382491004349
H -0.790091386338 -0.105417949568 0.104491004349
H -2.159091386338 -0.748417949568 -0.125508995651
O 1.651592250026 0.052851141342 -0.366487177469
H 1.885592250026 0.937851141342 -0.676487177469
H 2.166592250026 -0.059148858658 0.443512822531
