6
Coordinates from XML
O -1.846305931792 -0.062534313204 0.406643731622
H -0.915305931792 -0.113534313204 0.128643731622
H -2.284305931792 -0.756534313204 -0.101356268378
O 1.77680679548 0.060967504978 -0.390639904742
H 2.01080679548 0.945967504978 -0.700639904742
H 2.29180679548 -0.051032495022 0.419360095258
