6
Coordinates from XML
O -1.302535002628 -0.167672236009 0.338573832135
H -1.233535002628 -0.360672236009 -0.610426167865
H -1.869535002628 -0.866672236009 0.663573832135
O 1.331464997372 0.189327763991 -0.364426167865
H 2.049464997372 0.629327763991 0.084573832135
H 0.594464997372 0.254327763991 0.272573832135
