6
Coordinates from XML
O -1.458080949076 -0.06717053252 0.338636486612
H -0.522080949076 -0.00917053252 0.080636486612
H -1.783080949076 -0.76117053252 -0.220363513388
O 1.365919050924 0.07382946748 -0.308363513388
H 1.801919050924 0.80582946748 -0.751363513388
H 1.965919050924 -0.14117053252 0.410636486612
