6
Coordinates from XML
O -1.709305735543 -0.049033299138 0.383913613586
H -0.753305735543 0.012966700862 0.201913613586
H -1.983305735543 -0.763033299138 -0.182086386414
O 1.608694264457 0.062966700862 -0.346086386414
H 2.024694264457 0.756966700862 -0.860086386414
H 2.308694264457 -0.228033299138 0.239913613586
