6
Coordinates from XML
O -1.660469990923 -0.048369043758 0.372993932811
H -0.702469990923 0.008630956242 0.184993932811
H -1.941469990923 -0.760369043758 -0.190006067189
O 1.560530009077 0.061630956242 -0.336006067189
H 1.973530009077 0.762630956242 -0.841006067189
H 2.256530009077 -0.221369043758 0.258993932811
