6
Coordinates from XML
O 0.881777663793 -0.396958510283 -1.913890418468
H 0.091777663793 -0.796958510283 -1.563890418468
H 1.521777663793 -0.476958510283 -1.203890418468
O -0.928222336207 0.393041489717 1.836109581532
H -0.608222336207 1.243041489717 1.536109581532
H -0.268222336207 0.093041489717 2.466109581532
