6
Coordinates from XML
O 0.262274466764 -1.399746814914 -0.636290428022
H 1.172274466764 -1.659746814914 -0.716290428022
H -0.167725533236 -2.129746814914 -0.186290428022
O -0.247725533236 1.470253185086 0.663709571978
H -0.537725533236 0.600253185086 0.393709571978
H -0.697725533236 2.070253185086 0.073709571978
