6
Coordinates from XML
O 0.654729780017 -1.448367013399 -0.591850002389
H 0.234729780017 -0.728367013399 -0.111850002389
H 0.704729780017 -1.128367013399 -1.491850002389
O -0.575270219983 1.361632986601 0.618149997611
H -0.985270219983 1.921632986601 1.278149997611
H -1.215270219983 1.311632986601 -0.091850002389
