6
Coordinates from XML
O 0.324647874221 -0.547527651849 1.459512764229
H -0.165352125779 -0.287527651849 2.249512764229
H 0.294647874221 0.222472348151 0.899512764229
O -0.345352125779 0.462472348151 -1.440487235771
H -0.385352125779 1.182472348151 -2.060487235771
H 0.584647874221 0.232472348151 -1.390487235771
