6
Coordinates from XML
O 0.582481915351 1.282030848878 -0.844351052141
H -0.187518084649 1.132030848878 -0.294351052141
H 1.322481915351 1.292030848878 -0.224351052141
O -0.587518084649 -1.257969151122 0.715648947859
H -0.627518084649 -0.677969151122 1.475648947859
H -0.427518084649 -2.127969151122 1.085648947859
