6
Coordinates from XML
O -1.517481915351 -1.191398935916 -0.023637233382
H -1.887481915351 -1.861398935916 0.536362766618
H -0.577481915351 -1.231398935916 0.146362766618
O 1.522518084649 1.188601064084 0.016362766618
H 1.582518084649 1.408601064084 -0.913637233382
H 0.802518084649 1.728601064084 0.346362766618
