6
Coordinates from XML
O 0.090243617885 1.247310636062 -0.729413823536
H 0.330243617885 0.397310636062 -0.369413823536
H 0.870243617885 1.787310636062 -0.639413823536
O -0.099756382115 -1.222689363938 0.660586176464
H -0.919756382115 -1.712689363938 0.560586176464
H -0.129756382115 -0.862689363938 1.540586176464
