6
Coordinates from XML
O 1.364278713545 -0.158248938305 0.566461707312
H 0.924278713545 -0.668248938305 1.246461707312
H 0.654278713545 0.311751061695 0.126461707312
O -1.255721286455 0.181751061695 -0.623538292688
H -1.705721286455 -0.658248938305 -0.613538292688
H -1.595721286455 0.641751061695 0.146461707312
