6
Coordinates from XML
O 0.143087226216 0.965108507894 1.119025528459
H -0.656912773784 1.015108507894 1.659025528459
H 0.123087226216 0.075108507894 0.769025528459
O -0.056912773784 -0.934891492106 -1.080974471541
H -0.626912773784 -0.164891492106 -1.130974471541
H -0.206912773784 -1.404891492106 -1.900974471541
