6
Coordinates from XML
O -0.044259579144 0.107771269735 1.567626592543
H -0.914259579144 0.267771269735 1.927626592543
H -0.204259579144 -0.242228730265 0.697626592543
O 0.095740420856 -0.032228730265 -1.532373407457
H -0.594259579144 -0.672228730265 -1.732373407457
H 0.895740420856 -0.552228730265 -1.452373407457
