6
Coordinates from XML
O -1.277735100437 0.507030848878 0.420631912962
H -0.367735100437 0.247030848878 0.340631912962
H -1.707735100437 -0.222969151122 0.870631912962
O 1.212264899563 -0.482969151122 -0.399368087038
H 2.162264899563 -0.482969151122 -0.419368087038
H 0.952264899563 0.077030848878 -1.129368087038
