6
Coordinates from XML
O -1.312689363938 0.594232977046 0.623591496883
H -2.012689363938 -0.065767022954 0.563591496883
H -0.702689363938 0.234232977046 1.273591496883
O 1.337310636062 -0.575767022954 -0.706408503117
H 1.647310636062 0.304232977046 -0.486408503117
H 0.677310636062 -0.765767022954 -0.036408503117
