6
Coordinates from XML
O 1.26819573411 -0.794025528459 -0.155207448587
H 0.63819573411 -0.364025528459 0.424792551413
H 0.98819573411 -0.534025528459 -1.035207448587
O -1.15180426589 0.755974471541 0.174792551413
H -1.71180426589 0.195974471541 -0.365207448587
H -1.76180426589 1.305974471541 0.664792551413
