6
Coordinates from XML
O 0.541218089426 -1.583212769007 -1.171534045907
H 1.341218089426 -1.373212769007 -1.651534045907
H 0.851218089426 -1.903212769007 -0.321534045907
O -0.588781910574 1.616787230993 1.208465954093
H -0.988781910574 0.756787230993 1.048465954093
H -0.448781910574 1.986787230993 0.338465954093
