6
Coordinates from XML
O 1.768781910574 0.475253185086 0.680496802971
H 0.878781910574 0.775253185086 0.830496802971
H 1.728781910574 0.025253185086 -0.169503197029
O -1.721218089426 -0.404746814914 -0.619503197029
H -1.151218089426 -0.734746814914 -1.309503197029
H -2.211218089426 -1.184746814914 -0.319503197029
