6
Coordinates from XML
O 0.488357446199 1.046336164521 -0.912139356772
H -0.401642553801 1.116336164521 -1.252139356772
H 0.468357446199 0.266336164521 -0.362139356772
O -0.481642553801 -0.983663835479 0.857860643228
H -0.101642553801 -1.863663835479 0.887860643228
H -0.071642553801 -0.513663835479 1.587860643228
