6
Coordinates from XML
O 0.274440425634 1.478709571978 -0.788601064084
H -0.585559574366 1.228709571978 -1.118601064084
H 0.204440425634 1.398709571978 0.161398935916
O -0.275559574366 -1.451290428022 0.791398935916
H 0.644440425634 -1.361290428022 1.051398935916
H -0.245559574366 -1.701290428022 -0.138601064084
