6
Coordinates from XML
O 1.569295748442 0.494558500728 0.370730853656
H 1.379295748442 -0.365441499272 0.740730853656
H 2.519295748442 0.564558500728 0.400730853656
O -1.610704251558 -0.385441499272 -0.399269146344
H -2.350704251558 -0.935441499272 -0.159269146344
H -0.890704251558 -0.995441499272 -0.529269146344
