6
Coordinates from XML
O 1.073700004777 -0.913275540402 1.166155318031
H 0.773700004777 -1.603275540402 0.576155318031
H 2.023700004777 -0.873275540402 1.026155318031
O -1.126299995223 1.006724459598 -1.153844681969
H -0.986299995223 0.156724459598 -1.573844681969
H -0.976299995223 0.836724459598 -0.223844681969
