6
Coordinates from XML
O -0.29716595887 1.173176599709 -1.472445746053
H -0.83716595887 1.183176599709 -0.692445746053
H -0.91716595887 1.253176599709 -2.202445746053
O 0.31283404113 -1.216823400291 1.487554253947
H 0.84283404113 -0.666823400291 2.047554253947
H 0.66283404113 -1.076823400291 0.607554253947
