6
Coordinates from XML
O -0.784891492106 0.764223409846 1.742725533236
H -1.124891492106 1.654223409846 1.802725533236
H -1.164891492106 0.414223409846 0.942725533236
O 0.815108507894 -0.825776590154 -1.757274466764
H 0.625108507894 -1.135776590154 -0.877274466764
H 1.185108507894 0.044223409846 -1.637274466764
