6
Coordinates from XML
O 0.06065851506 0.180045736498 1.961362766618
H -0.17934148494 -0.729954263502 1.821362766618
H 0.86065851506 0.300045736498 1.451362766618
O -0.10934148494 -0.089954263502 -1.968637233382
H -0.67934148494 -0.609954263502 -1.408637233382
H 0.77065851506 -0.389954263502 -1.748637233382
