6
Coordinates from XML
O -1.688907453365 0.113890418468 -0.468979791961
H -2.328907453365 -0.146109581532 -1.128979791961
H -1.598907453365 -0.656109581532 0.091020208039
O 1.761092546635 -0.036109581532 0.521020208039
H 0.901092546635 -0.446109581532 0.641020208039
H 1.881092546635 0.013890418468 -0.428979791961
