6
Coordinates from XML
O 0.402554253947 1.755559574366 -0.988700004777
H 0.162554253947 0.845559574366 -1.128700004777
H 1.202554253947 1.875559574366 -1.498700004777
O -0.387445746053 -1.754440425634 1.041299995223
H -0.417445746053 -0.824440425634 1.251299995223
H -1.187445746053 -1.914440425634 0.541299995223
