6
Coordinates from XML
O -1.120559574366 1.610352125779 -0.227481915351
H -0.430559574366 2.270352125779 -0.307481915351
H -0.920559574366 0.980352125779 -0.917481915351
O 1.119440425634 -1.589647874221 0.232518084649
H 1.179440425634 -1.949647874221 1.122518084649
H 0.189440425634 -1.629647874221 0.022518084649
