6
Coordinates from XML
O 0.407481915351 -0.922580856044 1.022156391669
H -0.542518084649 -1.022580856044 1.112156391669
H 0.767481915351 -1.282580856044 1.842156391669
O -0.412518084649 0.977419143956 -1.117843608331
H -0.472518084649 0.077419143956 -0.777843608331
H 0.327481915351 1.357419143956 -0.657843608331
