6
Coordinates from XML
O 0.532040416079 0.937698931139 -1.02367340268
H 0.092040416079 0.427698931139 -0.34367340268
H -0.177959583921 1.407698931139 -1.46367340268
O -0.427959583921 -0.882301068861 1.00632659732
H -0.307959583921 -1.742301068861 0.59632659732
H -1.257959583921 -0.972301068861 1.48632659732
