6
Coordinates from XML
O -0.008330844101 -0.407580856044 -1.66885424917
H -0.168330844101 -0.947580856044 -0.89885424917
H 0.751669155899 -0.817580856044 -2.08885424917
O -0.068330844101 0.462419143956 1.60114575083
H 0.851669155899 0.232419143956 1.54114575083
H -0.218330844101 0.662419143956 2.52114575083
