6
Coordinates from XML
O 1.200694684358 -0.704078732654 -0.044512764229
H 0.830694684358 -1.374078732654 0.515487235771
H 2.140694684358 -0.744078732654 0.125487235771
O -1.239305315642 0.805921267346 0.025487235771
H -0.489305315642 0.215921267346 0.145487235771
H -1.869305315642 0.285921267346 -0.484512764229
