6
Coordinates from XML
O -1.602969151122 -0.21132659732 0.908077659015
H -1.872969151122 -0.68132659732 0.108077659015
H -0.872969151122 -0.73132659732 1.248077659015
O 1.627030848878 0.22867340268 -0.901922340985
H 0.827030848878 -0.04132659732 -0.451922340985
H 1.537030848878 1.17867340268 -1.001922340985
