6
Coordinates from XML
O -1.420253185086 0.8000095672 1.319440425634
H -1.450253185086 -0.0499904328 0.879440425634
H -0.540253185086 1.1300095672 1.169440425634
O 1.349746814914 -0.7199904328 -1.320559574366
H 2.259746814914 -1.0199904328 -1.250559574366
H 0.849746814914 -1.3299904328 -0.780559574366
