6
Coordinates from XML
O 0.395776590154 -0.07518084649 1.46885424917
H -0.494223409846 0.22481915351 1.61885424917
H 0.355776590154 -0.52518084649 0.61885424917
O -0.334223409846 0.02481915351 -1.40114575083
H -1.164223409846 0.41481915351 -1.69114575083
H 0.325776590154 0.68481915351 -1.62114575083
