6
Coordinates from XML
O 0.242129789572 0.965911700146 -1.568384048296
H -0.337870210428 0.395911700146 -2.068384048296
H 0.992129789572 0.405911700146 -1.348384048296
O -0.267870210428 -0.944088299854 1.631615951704
H -0.787870210428 -0.704088299854 0.871615951704
H 0.542129789572 -0.444088299854 1.541615951704
