6
Coordinates from XML
O -1.074756382115 -0.848844681969 1.340072338596
H -0.834756382115 -1.698844681969 1.700072338596
H -0.294756382115 -0.308844681969 1.430072338596
O 1.065243617885 0.861155318031 -1.319927661404
H 0.155243617885 0.561155318031 -1.259927661404
H 1.125243617885 1.251155318031 -2.189927661404
