6
Coordinates from XML
O 0.813528725488 1.562238297466 -0.033772343373
H -0.136471274512 1.452238297466 -0.063772343373
H 1.063528725488 1.702238297466 -0.953772343373
O -0.836471274512 -1.557761702534 0.066227656627
H -0.036471274512 -1.347761702534 -0.413772343373
H -0.526471274512 -1.877761702534 0.916227656627
