6
Coordinates from XML
O 0.911299995223 0.803051056918 -1.539611704923
H 0.041299995223 0.963051056918 -1.179611704923
H 0.751299995223 0.453051056918 -2.409611704923
O -0.858700004777 -0.726948943082 1.570388295077
H -0.158700004777 -1.276948943082 1.920388295077
H -1.468700004777 -1.346948943082 1.180388295077
