6
Coordinates from XML
O -0.898736174075 0.884512764229 1.036705325197
H -1.738736174075 0.974512764229 1.486705325197
H -0.308736174075 1.484512764229 1.496705325197
O 0.941263825925 -0.865487235771 -1.103294674803
H 0.681263825925 -1.575487235771 -1.693294674803
H 0.691263825925 -1.185487235771 -0.233294674803
