6
Coordinates from XML
O 0.840631912962 -0.161362766618 1.44734680536
H 0.040631912962 -0.111362766618 1.98734680536
H 0.820631912962 -1.051362766618 1.09734680536
O -0.819368087038 0.168637233382 -1.41265319464
H -0.849368087038 0.058637233382 -2.36265319464
H -0.349368087038 0.988637233382 -1.27265319464
