6
Coordinates from XML
O 0.197590423245 0.571922340985 -1.802662761841
H 0.597590423245 -0.178077659015 -1.362662761841
H -0.732409576755 0.351922340985 -1.862662761841
O -0.172409576755 -0.578077659015 1.757337238159
H -0.812409576755 0.131922340985 1.687337238159
H 0.547590423245 -0.208077659015 2.257337238159
