6
Coordinates from XML
O 1.553610631284 -1.078258505505 0.422698931139
H 1.133610631284 -0.358258505505 0.902698931139
H 1.603610631284 -0.758258505505 -0.477301068861
O -1.476389368716 1.021741494495 -0.367301068861
H -1.796389368716 0.331741494495 -0.947301068861
H -2.166389368716 1.681741494495 -0.357301068861
