6
Coordinates from XML
O -0.572978718322 -1.616958510283 -0.138709571978
H 0.327021281678 -1.766958510283 0.141290428022
H -0.522978718322 -1.546958510283 -1.088709571978
O 0.517021281678 1.613041489717 0.111290428022
H 1.247021281678 1.953041489717 0.631290428022
H -0.162978718322 1.423041489717 0.751290428022
