6
Coordinates from XML
O -0.273564894786 1.041958510283 1.489467027731
H -0.973564894786 0.381958510283 1.429467027731
H 0.336435105214 0.681958510283 2.139467027731
O 0.286435105214 -1.038041489717 -1.560532972269
H 0.906435105214 -0.668041489717 -0.930532972269
H -0.473564894786 -0.458041489717 -1.510532972269
