6
Coordinates from XML
O -0.071669155899 1.992761702534 -0.992725533236
H -0.871669155899 2.042761702534 -0.452725533236
H -0.091669155899 1.102761702534 -1.342725533236
O 0.148330844101 -1.997238297466 1.007274466764
H 0.198330844101 -1.087238297466 1.297274466764
H -0.451669155899 -1.987238297466 0.267274466764
