6
Coordinates from XML
O 0.167238297466 -1.306218089426 1.323953189863
H -0.702761702534 -1.146218089426 1.683953189863
H 0.007238297466 -1.656218089426 0.453953189863
O -0.162761702534 1.353781910574 -1.306046810137
H 0.497238297466 1.463781910574 -0.626046810137
H 0.127238297466 0.583781910574 -1.796046810137
