6
Coordinates from XML
O -0.472139356772 0.865207448587 1.178772343373
H -0.662139356772 0.005207448587 1.548772343373
H 0.477860643228 0.935207448587 1.208772343373
O 0.417860643228 -0.884792551413 -1.211227656627
H 0.487860643228 -0.424792551413 -0.371227656627
H 0.557860643228 -0.204792551413 -1.871227656627
