6
Coordinates from XML
O -0.632093620274 1.10452233143 -0.911372333819
H -1.422093620274 0.62452233143 -1.151372333819
H -0.252093620274 0.61452233143 -0.181372333819
O 0.667906379726 -1.00547766857 0.838627666181
H 0.207906379726 -1.83547766857 0.728627666181
H 0.897906379726 -0.97547766857 1.758627666181
