6
Coordinates from XML
O 0.253953189863 1.257400009555 -1.466570215205
H 0.323953189863 2.097400009555 -1.916570215205
H -0.356046810137 1.427400009555 -0.746570215205
O -0.236046810137 -1.362599990445 1.493429784795
H 0.213953189863 -1.412599990445 0.643429784795
H -0.466046810137 -0.442599990445 1.593429784795
