6
Coordinates from XML
O -1.423627666181 1.265108507894 -0.587337238159
H -1.143627666181 0.355108507894 -0.637337238159
H -2.373627666181 1.215108507894 -0.447337238159
O 1.496372333819 -1.234891492106 0.632662761841
H 1.816372333819 -0.814891492106 -0.167337238159
H 0.546372333819 -1.234891492106 0.532662761841
