6
Coordinates from XML
O -0.979097867055 1.190911700146 -0.263907453365
H -1.249097867055 0.720911700146 -1.063907453365
H -0.249097867055 0.670911700146 0.076092546635
O 0.920902132945 -1.169088299854 0.336092546635
H 1.530902132945 -0.439088299854 0.456092546635
H 0.890902132945 -1.299088299854 -0.613907453365
