6
Coordinates from XML
O -0.184792551413 -0.524206374949 1.401615951704
H -0.804792551413 0.155793625051 1.671615951704
H -0.024792551413 -0.344206374949 0.471615951704
O 0.165207448587 0.435793625051 -1.338384048296
H 0.105207448587 1.385793625051 -1.478384048296
H 1.035207448587 0.205793625051 -1.668384048296
