6
Coordinates from XML
O 1.649710645616 -0.067192560967 -1.019684043519
H 1.459710645616 -0.927192560967 -0.649684043519
H 2.599710645616 0.002807439033 -0.989684043519
O -1.730289354384 0.152807439033 1.030315956481
H -1.080289354384 -0.457192560967 1.380315956481
H -1.700289354384 0.022807439033 0.090315956481
