6
Coordinates from XML
O 1.402518084649 -0.69716595887 0.974684043519
H 0.532518084649 -0.53716595887 1.334684043519
H 1.242518084649 -1.04716595887 0.104684043519
O -1.397481915351 0.71283404113 -0.985315956481
H -0.567481915351 1.17283404113 -1.065315956481
H -1.287481915351 0.16283404113 -0.205315956481
