6
Coordinates from XML
O -0.433989359161 -0.315803192252 -1.702057450976
H -1.013989359161 -0.885803192252 -2.202057450976
H 0.316010640839 -0.875803192252 -1.482057450976
O 0.406010640839 0.324196807748 1.747942549024
H 1.226010640839 0.484196807748 1.287942549024
H -0.083989359161 1.144196807748 1.667942549024
