6
Coordinates from XML
O 1.684657441421 0.844097867055 0.511435105214
H 1.144657441421 0.854097867055 1.291435105214
H 1.064657441421 0.924097867055 -0.218564894786
O -1.625342558579 -0.785902132945 -0.498564894786
H -2.315342558579 -1.445902132945 -0.508564894786
H -0.835342558579 -1.255902132945 -0.768564894786
