6
Coordinates from XML
O -1.074864890009 1.00036169298 0.040451066473
H -1.654864890009 0.43036169298 -0.459548933527
H -0.324864890009 0.44036169298 0.260451066473
O 1.035135109991 -0.89963830702 -0.069548933527
H 0.975135109991 -1.84963830702 0.030451066473
H 1.635135109991 -0.61963830702 0.630451066473
