6
Coordinates from XML
O -1.157409576755 -1.574828720711 -0.076092546635
H -1.647409576755 -1.314828720711 0.713907453365
H -1.187409576755 -0.804828720711 -0.636092546635
O 1.182590423245 1.545171279289 0.003907453365
H 1.972590423245 1.275171279289 0.473907453365
H 0.462590423245 1.315171279289 0.593907453365
