6
Coordinates from XML
O 1.009295748442 0.389440425634 -1.351859569589
H 0.849295748442 -0.150559574366 -0.581859569589
H 1.769295748442 -0.020559574366 -1.771859569589
O -1.050704251558 -0.390559574366 1.298140430411
H -0.250704251558 -0.080559574366 1.728140430411
H -1.710704251558 0.269440425634 1.478140430411
