6
Coordinates from XML
O -0.205875530848 1.321444672415 1.5249904328
H 0.394124469152 0.611444672415 1.2849904328
H -0.775875530848 0.941444672415 2.1849904328
O 0.194124469152 -1.228555327585 -1.6050095672
H -0.265875530848 -1.118555327585 -0.7650095672
H 0.834124469152 -1.908555327585 -1.4350095672
