6
Coordinates from XML
O -1.512571055007 -0.044124469152 0.339430741515
H -0.546571055007 0.001875530848 0.138430741515
H -1.829571055007 -0.757124469152 -0.217569258485
O 1.415428944993 0.055875530848 -0.304569258485
H 1.818428944993 0.782875530848 -0.798569258485
H 2.099428944993 -0.214124469152 0.324430741515
