6
Coordinates from XML
O -1.462507863711 -0.042131703012 0.328727656627
H -0.495507863711 -0.007131703012 0.115727656627
H -1.791507863711 -0.754131703012 -0.221272343373
O 1.367492136289 0.051868296988 -0.296272343373
H 1.758492136289 0.802868296988 -0.766272343373
H 2.036492136289 -0.196131703012 0.356727656627
