12
Coordinates from XML
N 0.923604 0.117343 0.250303
C -0.0392612 0.504642 -0.840058
H 1.54275 0.910001 0.489847
H 1.51564 -0.675456 -0.0491614
H 0.414469 -0.164069 1.10489
H 0.563517 0.820063 -1.69723
H -0.607142 1.36351 -0.469355
C -1.01036 -0.608271 -1.27337
H -0.462791 -1.47303 -1.65608
H -1.67169 -0.245618 -2.06419
H -1.62896 -0.931817 -0.432677
Li -0.000148887 -1.34268e-05 3.80094
