12
Coordinates from XML
N -0.495154 0.230475 -1.75785
C -0.132025 0.449764 -0.313534
H -1.04148 1.02885 -2.12275
H -1.06389 -0.626001 -1.86602
H 0.354912 0.129447 -2.33744
H -1.0713 0.580097 0.23267
H 0.437474 1.38319 -0.269403
C 0.685788 -0.684889 0.329205
H 0.130182 -1.6255 0.303694
H 0.906555 -0.446959 1.37271
H 1.63329 -0.825592 -0.196685
Li 7.81675e-05 -3.22049e-05 4.18311
