12
Coordinates from XML
N -0.486984779356 0.418319418444 -1.727001010576
C 0.45184968382 -0.313773963679 -0.805791033914
H -0.209515445351 0.284028487663 -2.713918255586
H -0.480821082882 1.432203642922 -1.525210308111
H -1.454465610699 0.07202046508 -1.613882090925
H 1.455204572213 0.077367555901 -1.000361248742
H 0.41916345296 -1.368701233035 -1.094962254442
C 0.126768244209 -0.178874424673 0.692705294909
H 0.163234478776 0.86782840701 1.004447687249
H 0.85255765497 -0.738012800869 1.288402954039
H -0.86910434774 -0.572639461184 0.910186262646
Li 8.3154856e-05 -7.0620381e-05 4.321945029919
