12
Coordinates from XML
N -0.322123 0.469551 0.458843
C -0.24678 0.335705 -1.03862
H -0.903066 1.28256 0.724464
H 0.6206 0.601081 0.862192
H -0.739285 -0.376823 0.881175
H 0.171022 1.2727 -1.41949
H -1.27509 0.232617 -1.3985
C 0.59769 -0.848559 -1.54237
H 1.63201 -0.759821 -1.20118
H 0.599511 -0.873372 -2.63491
H 0.191423 -1.79608 -1.18005
Li 4.91268e-05 -7.18587e-05 4.26952
