12
Coordinates from XML
N -0.587476 -0.585951 -1.68925
C 0.240578 0.460329 -0.99238
H -0.679206 -0.36884 -2.69596
H -1.53631 -0.632804 -1.28153
H -0.150306 -1.51839 -1.59882
H -0.259761 1.41991 -1.15495
H 1.21376 0.477472 -1.49256
C 0.439619 0.231007 0.516646
H -0.521244 0.219724 1.03695
H 1.04939 1.03139 0.943052
H 0.946593 -0.719377 0.700648
Li 9.70232e-05 9.91546e-05 4.98147
