12
Coordinates from XML
N -0.134409 -1.23797 -0.414198
C 0.133544 0.114913 -1.01745
H -0.0453463 -1.98068 -1.12797
H -1.0898 -1.28066 -0.0216212
H 0.536779 -1.4389 0.345979
H -0.58691 0.247207 -1.83048
H 1.14274 0.0783144 -1.43904
C 0.0266334 1.29563 -0.0356952
H -0.977884 1.35569 0.390259
H 0.235405 2.236 -0.551818
H 0.745185 1.18731 0.78043
Li 2.30391e-05 0.000200241 3.12416
