12
Coordinates from XML
N -0.690466 0.297885 -1.61568
C -0.292993 0.182899 -0.168336
H -1.60491 0.771648 -1.70716
H -0.766828 -0.637399 -2.04942
H 0.0100088 0.843586 -2.14509
H -1.08901 -0.374252 0.335157
H -0.262888 1.20069 0.232604
C 1.05886 -0.510053 0.0800297
H 1.04675 -1.53256 -0.305249
H 1.27087 -0.551346 1.15129
H 1.86982 0.0363983 -0.407654
Li 0.000107832 -4.59194e-05 4.07895
