12
Coordinates from XML
N -0.285890768534 0.192204048158 0.529429254301
C -0.118682605804 0.488245191305 -0.936994887065
H -0.66093994495 1.016478301906 1.028367129971
H 0.62091123805 -0.059060293046 0.957558967232
H -0.939797304978 -0.595855026879 0.671228936764
H 0.555380993117 1.347105101174 -1.011615318122
H -1.10439858248 0.775883601354 -1.315396904092
C 0.435984275618 -0.677700880233 -1.775017252172
H 1.425436867852 -0.974639964672 -1.418772011987
H 0.525363577886 -0.380587830973 -2.822870710383
H -0.228058057834 -1.543879377645 -1.721224272105
Li 4.4683597e-05 -2.5633445e-05 4.391005413857
