12
Coordinates from XML
N -0.285891 0.192204 0.529429
C -0.118683 0.488245 -0.936995
H -0.66094 1.01648 1.02837
H 0.620911 -0.0590603 0.957559
H -0.939797 -0.595855 0.671229
H 0.555381 1.34711 -1.01162
H -1.1044 0.775884 -1.3154
C 0.435984 -0.677701 -1.77502
H 1.42544 -0.97464 -1.41877
H 0.525364 -0.380588 -2.82287
H -0.228058 -1.54388 -1.72122
Li 4.46836e-05 -2.56334e-05 4.39101
