12
Coordinates from XML
N 0.125903400392 -0.01537706996 -2.028053372568
C 0.16442200411 0.51932326803 -0.621422448615
H 0.44824411616 0.700905273663 -2.700411165021
H -0.835619898416 -0.292295403 -2.287876162322
H 0.737300229188 -0.843769728127 -2.121313952311
H -0.474447313871 1.40762159689 -0.602919411346
H 1.198213685554 0.820677287889 -0.426434135653
C -0.297632064954 -0.471571807675 0.462090385506
H -1.332342434764 -0.778375601223 0.290784208816
H -0.238413393899 -0.006429141024 1.449205952326
H 0.333957038732 -1.363304525768 0.466455965388
Li -1.8472983e-05 8.069928e-06 5.172445726139
