12
Coordinates from XML
N 0.00365055 0.563137 -1.70712
C -0.0302522 0.418086 -0.209182
H -0.0359709 1.55993 -1.97889
H -0.800501 0.0785316 -2.1398
H 0.872117 0.157438 -2.0943
H -0.953875 0.894198 0.13405
H 0.824934 0.977969 0.181646
C 0.0243133 -1.03228 0.303487
H -0.827394 -1.60706 -0.0684353
H -0.00403281 -1.04801 1.39583
H 0.944719 -1.52372 -0.0212407
Li -9.19076e-07 -8.60188e-05 3.9054
