12
Coordinates from XML
N 0.23401 1.151 -0.962718
C -0.521939 0.0204204 -0.317487
H -0.326334 2.01984 -0.949773
H 0.458441 0.926448 -1.94655
H 1.12028 1.33119 -0.461931
H -1.45712 -0.0934296 -0.874302
H -0.752712 0.337452 0.704176
C 0.226107 -1.32445 -0.284217
H 0.458188 -1.66394 -1.29663
H -0.389594 -2.08719 0.198909
H 1.16015 -1.23461 0.275777
Li -4.32435e-05 -0.000184804 3.57551
