12
Coordinates from XML
N 0.682266 0.968062 -0.202528
C 0.360091 -0.439949 -0.626447
H 1.68479 1.05841 0.0337241
H 0.129438 1.23518 0.629184
H 0.468125 1.63658 -0.961449
H 0.639588 -1.0929 0.206083
H 0.999729 -0.665241 -1.48532
C -1.11276 -0.683496 -1.00161
H -1.76865 -0.472853 -0.153353
H -1.26001 -1.72541 -1.29655
H -1.40996 -0.0465727 -1.83834
Li -0.000105795 -0.000160357 3.8878
