12
Coordinates from XML
N 0.785906 -0.0417913 -1.5406
C 0.235483 0.357001 -0.197475
H 1.68954 0.427764 -1.71946
H 0.13112 0.21992 -2.29657
H 0.938842 -1.06327 -1.58456
H 0.129609 1.44614 -0.209552
H 0.988708 0.0811673 0.546923
C -1.11296 -0.288753 0.16867
H -1.88247 -0.0178131 -0.558343
H -1.43949 0.0518398 1.15439
H -1.02665 -1.37777 0.195071
Li -0.000123799 1.05696e-05 3.76653
