12
Coordinates from XML
N -0.344407773552 -0.687063341549 -1.597639490284
C -0.449230696599 0.006761012852 -0.265866757966
H -1.225193571569 -1.179053838645 -1.823893026563
H 0.420458195797 -1.382488546709 -1.588554758064
H -0.152825312792 -0.005560044038 -2.351023476251
H -0.683496064026 -0.763912763484 0.474911182441
H -1.292907462624 0.700127975178 -0.336660105985
C 0.813581853203 0.772723570952 0.167691656957
H 1.667080809793 0.095763585619 0.253509094913
H 0.653472720158 1.245229926248 1.139990223922
H 1.060114395152 1.554233693613 -0.555201646815
Li 5.0524589e-05 0.000110512359 4.044231993142
