12
Coordinates from XML
N -0.424783907238 0.395905565248 0.410697681812
C -0.358868588596 0.210282500334 -1.081682276188
H -1.237672136201 0.979421641378 0.670987232143
H 0.430506620249 0.860031614061 0.759673073214
H -0.515878144669 -0.516038232307 0.889026401532
H -0.296500229162 1.209968964534 -1.52248546349
H -1.302806906277 -0.253468878336 -1.384130683848
C 0.819645174628 -0.646934522207 -1.577314560907
H 1.773470870592 -0.195708595426 -1.293216641133
H 0.793073854373 -0.731808724485 -2.666512443905
H 0.771066132873 -1.653680335973 -1.155160515721
Li 6.4420067e-05 -6.1370303e-05 4.547228099379
