12
Coordinates from XML
N 0.519051 0.54986 -1.53585
C 0.00747498 0.38966 -0.129216
H 0.908504 1.4971 -1.67758
H -0.24261 0.408414 -2.22038
H 1.26434 -0.138458 -1.7346
H -0.749904 1.1649 0.0223009
H 0.852897 0.583189 0.538144
C -0.595664 -0.990443 0.188442
H -1.4486 -1.19957 -0.461841
H -0.940643 -1.02231 1.2249
H 0.14819 -1.7792 0.051831
Li -8.33619e-05 -8.41885e-05 3.57561
