12
Coordinates from XML
N -0.796947 0.296976 0.3248
C 0.148029 -0.541963 -0.493247
H -1.17125 -0.245464 1.12147
H -1.59399 0.616676 -0.250733
H -0.314421 1.13056 0.70036
H -0.416146 -1.41722 -0.829706
H 0.944183 -0.870117 0.182041
C 0.764307 0.173563 -1.70881
H -0.0147006 0.501655 -2.40134
H 1.43506 -0.502446 -2.24487
H 1.34039 1.04692 -1.39338
Li 0.000129699 -5.35804e-05 3.853
