12
Coordinates from XML
N 1.03542 0.131801 0.0685963
C 0.167088 -0.23137 -1.10618
H 2.02534 -0.0960355 -0.124199
H 0.743491 -0.387393 0.913543
H 0.970905 1.14328 0.272253
H 0.308059 -1.30175 -1.285
H 0.550177 0.326337 -1.96628
C -1.33149 0.0683787 -0.92238
H -1.73639 -0.486884 -0.0727671
H -1.88741 -0.223127 -1.81694
H -1.49517 1.13516 -0.751244
Li -0.000164643 -2.36857e-05 4.0266
