12
Coordinates from XML
N 0.0455287 -0.382717 0.487822
C 0.272812 -0.398239 -1.00016
H 0.461037 -1.21995 0.929883
H -0.9655 -0.372255 0.703299
H 0.475797 0.454707 0.914821
H -0.177094 -1.32091 -1.37942
H 1.35546 -0.44126 -1.15372
C -0.308551 0.808979 -1.7578
H -1.39174 0.864877 -1.62486
H -0.0999124 0.720052 -2.82683
H 0.134933 1.74133 -1.39982
Li -4.38437e-06 5.72269e-05 4.58193
