12
Coordinates from XML
N 0.440218 -0.298845 -1.93908
C 0.242382 -0.365659 -0.448308
H 1.10106 -1.02932 -2.25329
H 0.820678 0.621433 -2.21667
H -0.45642 -0.440567 -2.43374
H 1.2293 -0.241106 0.0078073
H -0.12889 -1.37031 -0.223823
C -0.727413 0.683229 0.125015
H -0.369649 1.69508 -0.0805731
H -0.81419 0.565236 1.20798
H -1.72278 0.570251 -0.311544
Li -6.8148e-05 4.41028e-05 5.32864
