12
Coordinates from XML
N 0.112370342696 -0.225828722101 0.638248065343
C 0.558717880425 0.121662518537 -0.800892588549
H 0.909044001287 -0.241321123875 1.27923111771
H -0.336940119742 -1.144523394483 0.661253799816
H -0.561923901275 0.463453807566 0.97975498684
H 1.29372005094 -0.632213978879 -1.074027613199
H 1.052822557065 1.088355860216 -0.733297098301
C -0.633628908117 0.141321235858 -1.743190492436
H -1.12671881699 -0.830057047881 -1.804668574491
H -0.285579446967 0.388891403563 -2.745742862231
H -1.368872344213 0.896958435567 -1.462274631054
Li -0.035180791354 0.002427181281 3.781308555404
