12
Coordinates from XML
N 0.112370342696 -0.225828722101 0.450561366055
C 0.558717880425 0.121662518537 -0.988579287837
H 0.909044001287 -0.241321123875 1.091544418422
H -0.336940119742 -1.144523394483 0.473567100528
H -0.561923901275 0.463453807566 0.792068287552
H 1.29372005094 -0.632213978879 -1.261714312487
H 1.052822557065 1.088355860216 -0.920983797589
C -0.633628908117 0.141321235858 -1.930877191724
H -1.12671881699 -0.830057047881 -1.992355273779
H -0.285579446967 0.388891403563 -2.933429561519
H -1.368872344213 0.896958435567 -1.649961330342
Li -0.035180791354 0.002427181281 5.013621856116
