12
Coordinates from XML
N 0.11237 -0.225829 0.413553
C 0.558718 0.121663 -1.02559
H 0.909044 -0.241321 1.05454
H -0.33694 -1.14452 0.436558
H -0.561924 0.463454 0.75506
H 1.29372 -0.632214 -1.29872
H 1.05282 1.08836 -0.957992
C -0.633629 0.141321 -1.96789
H -1.12672 -0.830057 -2.02936
H -0.285579 0.388891 -2.97044
H -1.36887 0.896958 -1.68697
Li -0.0351808 0.00242718 5.25661
