12
Coordinates from XML
N 0.11237 -0.225829 0.379188
C 0.558718 0.121663 -1.05995
H 0.909044 -0.241321 1.02017
H -0.33694 -1.14452 0.402193
H -0.561924 0.463454 0.720694
H 1.29372 -0.632214 -1.33309
H 1.05282 1.08836 -0.992358
C -0.633629 0.141321 -2.00225
H -1.12672 -0.830057 -2.06373
H -0.285579 0.388891 -3.0048
H -1.36887 0.896958 -1.72134
Li -0.0351808 0.00242718 5.48225
