12
Coordinates from XML
N 0.112370342696 -0.225828722101 0.379187550833
C 0.558717880425 0.121662518537 -1.05995310306
H 0.909044001287 -0.241321123875 1.020170603199
H -0.336940119742 -1.144523394483 0.402193285306
H -0.561923901275 0.463453807566 0.720694472329
H 1.29372005094 -0.632213978879 -1.333088127709
H 1.052822557065 1.088355860216 -0.992357612811
C -0.633628908117 0.141321235858 -2.002251006946
H -1.12671881699 -0.830057047881 -2.063729089001
H -0.285579446967 0.388891403563 -3.004803376742
H -1.368872344213 0.896958435567 -1.721335145564
Li -0.035180791354 0.002427181281 5.482248040894
