12
Coordinates from XML
N 0.112370342696 -0.225828722101 0.342178905903
C 0.558717880425 0.121662518537 -1.09696174799
H 0.909044001287 -0.241321123875 0.983161958269
H -0.336940119742 -1.144523394483 0.365184640376
H -0.561923901275 0.463453807566 0.683685827399
H 1.29372005094 -0.632213978879 -1.370096772639
H 1.052822557065 1.088355860216 -1.029366257741
C -0.633628908117 0.141321235858 -2.039259651876
H -1.12671881699 -0.830057047881 -2.100737733931
H -0.285579446967 0.388891403563 -3.041812021672
H -1.368872344213 0.896958435567 -1.758343790494
Li -0.035180791354 0.002427181281 5.725239395964
