12
Coordinates from XML
N 0.141479 0.255904 -2.2074
C 0.446698 -0.386226 -0.834226
H 0.817438 -0.0430124 -2.91417
H 0.175778 1.27609 -2.1406
H -0.79432 -0.00785103 -2.5254
H 1.46277 -0.0876261 -0.586045
H 0.424608 -1.4614 -0.997699
C -0.564211 0.0657805 0.20681
H -0.539345 1.14516 0.364365
H -0.321462 -0.403621 1.15985
H -1.58173 -0.233563 -0.0491846
Li -0.0302086 0.0108752 6.5833
