12
Coordinates from XML
N 0.141479083364 0.255903722538 -2.223262563418
C 0.44669826173 -0.386226369045 -0.850086570661
H 0.817437530729 -0.043012434722 -2.930028093556
H 0.175777807536 1.276085419051 -2.156464658069
H -0.794320445637 -0.007851034937 -2.541260645199
H 1.462771548683 -0.087626113444 -0.601905853035
H 0.424608488347 -1.461397626593 -1.013559527077
C -0.564210660007 0.065780511358 0.190949260137
H -0.539345262147 1.145155853822 0.348504218791
H -0.321462017978 -0.403621001884 1.14398440413
H -1.581729306855 -0.233563348887 -0.065045399439
Li -0.03020863384 0.010875234296 6.687438597509
