12
Coordinates from XML
N 0.141479083364 0.255903722538 -2.265558157624
C 0.44669826173 -0.386226369045 -0.892382164867
H 0.817437530729 -0.043012434722 -2.972323687762
H 0.175777807536 1.276085419051 -2.198760252275
H -0.794320445637 -0.007851034937 -2.583556239405
H 1.462771548683 -0.087626113444 -0.644201447241
H 0.424608488347 -1.461397626593 -1.055855121283
C -0.564210660007 0.065780511358 0.148653665931
H -0.539345262147 1.145155853822 0.306208624585
H -0.321462017978 -0.403621001884 1.101688809924
H -1.581729306855 -0.233563348887 -0.107340993645
Li -0.03020863384 0.010875234296 6.965143003303
