12
Coordinates from XML
N 0.678683843956 -0.27068356056 -1.553360442241
C 0.264124572501 -0.272101078092 -0.063648822652
H 1.527386398376 -0.821541708313 -1.701844385491
H 0.854777322851 0.684413964641 -1.874590672114
H -0.066521226419 -0.665570638548 -2.132276420007
H 1.116154188534 0.127145000898 0.482069793047
H 0.130198074142 -1.317272897522 0.206321841552
C -0.997576569413 0.549563143531 0.143669300963
H -0.857972901512 1.596143480075 -0.131418681314
H -1.261783379907 0.527763316282 1.200674598182
H -1.847735765121 0.146339034114 -0.408710883893
Li -0.04184231291 0.025836186955 3.58971683873
