12
Coordinates from XML
N 0.678683843956 -0.27068356056 -1.56657781543
C 0.264124572501 -0.272101078092 -0.076866195841
H 1.527386398376 -0.821541708313 -1.71506175868
H 0.854777322851 0.684413964641 -1.887808045303
H -0.066521226419 -0.665570638548 -2.145493793196
H 1.116154188534 0.127145000898 0.468852419858
H 0.130198074142 -1.317272897522 0.193104468363
C -0.997576569413 0.549563143531 0.130451927774
H -0.857972901512 1.596143480075 -0.144636054504
H -1.261783379907 0.527763316282 1.187457224992
H -1.847735765121 0.146339034114 -0.421928257082
Li -0.04184231291 0.025836186955 3.676499465541
