12
Coordinates from XML
N 0.678684 -0.270684 -1.60887
C 0.264125 -0.272101 -0.119162
H 1.52739 -0.821542 -1.75736
H 0.854777 0.684414 -1.9301
H -0.0665212 -0.665571 -2.18779
H 1.11615 0.127145 0.426557
H 0.130198 -1.31727 0.150809
C -0.997577 0.549563 0.0881563
H -0.857973 1.59614 -0.186932
H -1.26178 0.527763 1.14516
H -1.84774 0.146339 -0.464224
Li -0.0418423 0.0258362 3.9542
