12
Coordinates from XML
N 0.678684 -0.270684 -1.63795
C 0.264125 -0.272101 -0.14824
H 1.52739 -0.821542 -1.78644
H 0.854777 0.684414 -1.95918
H -0.0665212 -0.665571 -2.21687
H 1.11615 0.127145 0.397479
H 0.130198 -1.31727 0.121731
C -0.997577 0.549563 0.0590781
H -0.857973 1.59614 -0.21601
H -1.26178 0.527763 1.11608
H -1.84774 0.146339 -0.493302
Li -0.0418423 0.0258362 4.14513
