12
Coordinates from XML
N 0.678683843956 -0.27068356056 -1.637951630652
C 0.264124572501 -0.272101078092 -0.148240011063
H 1.527386398376 -0.821541708313 -1.786435573903
H 0.854777322851 0.684413964641 -1.959181860525
H -0.066521226419 -0.665570638548 -2.216867608418
H 1.116154188534 0.127145000898 0.397478604636
H 0.130198074142 -1.317272897522 0.121730653141
C -0.997576569413 0.549563143531 0.059078112552
H -0.857972901512 1.596143480075 -0.216009869726
H -1.261783379907 0.527763316282 1.11608340977
H -1.847735765121 0.146339034114 -0.493302072304
Li -0.04184231291 0.025836186955 4.145125650319
