12
Coordinates from XML
N 0.678683843956 -0.27068356056 -1.690821123409
C 0.264124572501 -0.272101078092 -0.20110950382
H 1.527386398376 -0.821541708313 -1.83930506666
H 0.854777322851 0.684413964641 -2.012051353283
H -0.066521226419 -0.665570638548 -2.269737101175
H 1.116154188534 0.127145000898 0.344609111879
H 0.130198074142 -1.317272897522 0.068861160384
C -0.997576569413 0.549563143531 0.006208619794
H -0.857972901512 1.596143480075 -0.268879362483
H -1.261783379907 0.527763316282 1.063213917013
H -1.847735765121 0.146339034114 -0.546171565061
Li -0.04184231291 0.025836186955 4.492256157562
