12
Coordinates from XML
N 0.678684 -0.270684 -1.7199
C 0.264125 -0.272101 -0.230188
H 1.52739 -0.821542 -1.86838
H 0.854777 0.684414 -2.04113
H -0.0665212 -0.665571 -2.29882
H 1.11615 0.127145 0.315531
H 0.130198 -1.31727 0.0397829
C -0.997577 0.549563 -0.0228696
H -0.857973 1.59614 -0.297958
H -1.26178 0.527763 1.03414
H -1.84774 0.146339 -0.57525
Li -0.0418423 0.0258362 4.68318
