12
Coordinates from XML
N 0.678684 -0.270684 -1.73312
C 0.264125 -0.272101 -0.243405
H 1.52739 -0.821542 -1.8816
H 0.854777 0.684414 -2.05435
H -0.0665212 -0.665571 -2.31203
H 1.11615 0.127145 0.302314
H 0.130198 -1.31727 0.0265656
C -0.997577 0.549563 -0.036087
H -0.857973 1.59614 -0.311175
H -1.26178 0.527763 1.02092
H -1.84774 0.146339 -0.588467
Li -0.0418423 0.0258362 4.76996
