12
Coordinates from XML
N 0.678683843956 -0.27068356056 -1.759551463994
C 0.264124572501 -0.272101078092 -0.269839844405
H 1.527386398376 -0.821541708313 -1.908035407244
H 0.854777322851 0.684413964641 -2.080781693867
H -0.066521226419 -0.665570638548 -2.33846744176
H 1.116154188534 0.127145000898 0.275878771294
H 0.130198074142 -1.317272897522 0.000130819799
C -0.997576569413 0.549563143531 -0.06252172079
H -0.857972901512 1.596143480075 -0.337609703067
H -1.261783379907 0.527763316282 0.994483576429
H -1.847735765121 0.146339034114 -0.614901905646
Li -0.04184231291 0.025836186955 4.943525816977
