12
Coordinates from XML
N 0.289373285109 -0.513573780724 0.597686022624
C 0.413061542106 -0.190872828466 -0.909519145539
H 1.033957096491 -1.14437933477 0.903410583363
H -0.610381564454 -0.958241000178 0.795477152779
H 0.346007127822 0.343804351299 1.152758501834
H 0.37840082463 -1.14953834285 -1.422276175624
H 1.401621788661 0.243789674816 -1.039986558324
C -0.69864315465 0.74670311839 -1.351182682715
H -1.68769412843 0.30645866723 -1.215329904259
H -0.58247366257 0.953584478736 -2.414782899609
H -0.660780442854 1.705131077656 -0.831118772185
Li -0.034322844376 0.03116964374 3.258648738395
