14
Coordinates from XML
N -1.233126329148 0.154618625652 -1.291836260775
C 0.112592516241 0.007451727823 -0.633519176198
H -1.975455346692 0.278013188108 -0.582787358675
H -1.459280457512 -0.683475936593 -1.853236754504
H -1.245757814314 0.976669428749 -1.918582570545
H 0.044967666762 -0.856048583542 0.035333857663
H 0.271444595393 0.909524866348 -0.034695330815
C 1.292204550658 -0.182374972365 -1.604007892081
H 1.157465855636 -1.084357560807 -2.205981992446
H 2.227404368408 -0.280106552748 -1.047131305505
H 1.382961605815 0.674565489063 -2.275965701178
O -0.045871706243 -0.016305572806 3.091850980153
H 0.847777119883 -0.365893853747 3.026266077992
H -0.116699196264 0.624346551016 2.377939295909
