14
Coordinates from XML
N -1.23313 0.154619 -1.29184
C 0.112593 0.00745173 -0.633519
H -1.97546 0.278013 -0.582787
H -1.45928 -0.683476 -1.85324
H -1.24576 0.976669 -1.91858
H 0.0449677 -0.856049 0.0353339
H 0.271445 0.909525 -0.0346953
C 1.2922 -0.182375 -1.60401
H 1.15747 -1.08436 -2.20598
H 2.2274 -0.280107 -1.04713
H 1.38296 0.674565 -2.27597
O -0.0458717 -0.0163056 3.09185
H 0.847777 -0.365894 3.02627
H -0.116699 0.624347 2.37794
