14
Coordinates from XML
N 0.188158320063 0.370171320446 -2.530430095427
C 0.250815006323 -0.509419230597 -1.31043284433
H 0.676796497138 -0.07334183666 -3.326393502424
H 0.635251767001 1.283841894713 -2.345951828894
H -0.792854223196 0.540538702911 -2.808508068416
H 1.310636192295 -0.674073896108 -1.093089374703
H -0.208260548935 -1.463954165783 -1.585519412839
C -0.449508026874 0.059975744256 -0.06355510883
H 0.000738013223 1.010222902907 0.233781004267
H -0.357972771719 -0.637653742973 0.772624351102
H -1.512513075769 0.223539921172 -0.256889329167
O -0.022136286278 0.000389911691 3.403726469516
H -0.277759731356 -0.597099644475 4.112799423871
H 0.628722959994 0.589948292199 3.796058889175
