14
Coordinates from XML
N 0.667439 1.04675 -0.952499
C 0.213485 -0.270977 -1.52129
H 1.45363 1.43121 -1.50306
H 0.983201 0.933698 0.0253724
H -0.103138 1.73578 -0.965823
H 1.08118 -0.937664 -1.50683
H -0.0740331 -0.0840037 -2.56049
C -0.957812 -0.931746 -0.772419
H -0.687721 -1.13568 0.266601
H -1.22397 -1.87888 -1.2482
H -1.83861 -0.285065 -0.782906
O 0.0184436 0.0559706 2.76007
H -0.876402 -0.222509 2.54368
H 0.582091 -0.668451 2.4726
