14
Coordinates from XML
N 0.667439257115 1.046747986364 -0.95249919627
C 0.213485224081 -0.270976657727 -1.521292822066
H 1.45363158505 1.431206013101 -1.503064889965
H 0.983201179237 0.933697906638 0.025372363503
H -0.103137982461 1.735784412739 -0.965823425124
H 1.081177455528 -0.937663511509 -1.506831861447
H -0.074033089568 -0.084003693375 -2.560491676
C -0.957812451093 -0.931746343177 -0.772418831049
H -0.687720698407 -1.135680155938 0.266600595354
H -1.223968609315 -1.878876135872 -1.248200029532
H -1.838610123587 -0.285065142529 -0.782905944965
O 0.018443568036 0.055970585339 2.760066131058
H -0.87640179196 -0.222509213377 2.543681396381
H 0.582091222374 -0.668450725034 2.472600208143
