14
Coordinates from XML
N -0.118883 1.2402 -1.06515
C 0.279296 -0.147499 -1.49145
H 0.185543 1.93881 -1.76394
H 0.31315 1.48215 -0.157668
H -1.14524 1.31133 -0.963809
H 1.36715 -0.142163 -1.61023
H -0.184099 -0.323193 -2.46714
C -0.128179 -1.26737 -0.51718
H 0.332223 -1.11554 0.462144
H 0.196576 -2.23794 -0.900333
H -1.21329 -1.29574 -0.391355
O -0.054802 -0.0358585 2.60523
H 0.852487 -0.35414 2.63064
H 0.0177164 0.920349 2.53086
