14
Coordinates from XML
N -0.118882913658 1.240204275223 -1.065153474276
C 0.279296188245 -0.147498798656 -1.491454156956
H 0.185542515578 1.938809397787 -1.763941693024
H 0.313150183406 1.482146888482 -0.157668006442
H -1.145239982048 1.311327404185 -0.963809097065
H 1.367153778548 -0.142163117242 -1.610229923103
H -0.184098708 -0.323192616364 -2.467136882361
C -0.128178593467 -1.267374341566 -0.5171799932
H 0.332223168955 -1.115537781546 0.462144161255
H 0.196575646821 -2.237935952761 -0.900333403584
H -1.213293468104 -1.295743765263 -0.391354799615
O -0.054801953373 -0.035858480157 2.60523059604
H 0.85248678824 -0.354139682588 2.630642906484
H 0.017716376441 0.92034881321 2.530864784319
