14
Coordinates from XML
N -0.204843 -1.0106 -1.90953
C -0.262755 -0.0988952 -0.713098
H -0.722548 -1.88676 -1.72692
H 0.773734 -1.25525 -2.13591
H -0.623952 -0.55476 -2.73735
H 0.16474 -0.653134 0.128114
H -1.32151 0.0914993 -0.512223
C 0.479728 1.23903 -0.880531
H 1.54221 1.07115 -1.073
H 0.387986 1.8382 0.028776
H 0.0616528 1.81295 -1.71116
O 0.0285542 0.0428376 3.13206
H -0.913005 -0.118137 3.01948
H 0.460208 -0.559439 2.51883
