14
Coordinates from XML
N 0.574882 -0.462453 -0.1305
C 0.328496 -0.138473 -1.57975
H 1.45476 -0.993916 -0.0191498
H -0.197292 -1.03276 0.253192
H 0.647423 0.402848 0.430508
H 0.295444 -1.09186 -2.11598
H 1.19372 0.434804 -1.92661
C -0.961212 0.654739 -1.85694
H -1.83925 0.0947904 -1.52588
H -1.06311 0.847684 -2.92776
H -0.944453 1.61571 -1.33699
O -0.0441943 -0.00559646 2.85626
H -0.197874 -0.0762662 3.8031
H 0.898058 0.166178 2.76808
