14
Coordinates from XML
N 0.369327850449 0.40017469385 -2.476397627504
C 0.438146458979 -0.296398290212 -1.143712830752
H 1.252691566463 0.27694963629 -2.999382392406
H 0.206968642361 1.413467862989 -2.351517123319
H -0.401119725589 0.017528305195 -3.049747684562
H 1.289363951702 0.132454027563 -0.606046801955
H 0.642439740742 -1.351663402716 -1.349235884098
C -0.831353807551 -0.17461773186 -0.281793087163
H -1.048185447071 0.872560338092 -0.057066468327
H -0.698305744243 -0.706243099453 0.663687941194
H -1.692810960813 -0.605820514629 -0.797609748318
O -0.020877837687 0.039904856251 3.512840002112
H 0.849488985758 0.021046808472 3.103905365919
H -0.518902555773 -0.655459271298 3.072883549388
