14
Coordinates from XML
N 0.369328 0.400175 -2.4764
C 0.438146 -0.296398 -1.14371
H 1.25269 0.27695 -2.99938
H 0.206969 1.41347 -2.35152
H -0.40112 0.0175283 -3.04975
H 1.28936 0.132454 -0.606047
H 0.64244 -1.35166 -1.34924
C -0.831354 -0.174618 -0.281793
H -1.04819 0.87256 -0.0570665
H -0.698306 -0.706243 0.663688
H -1.69281 -0.605821 -0.79761
O -0.0208778 0.0399049 3.51284
H 0.849489 0.0210468 3.10391
H -0.518903 -0.655459 3.07288
