14
Coordinates from XML
N -1.217155510705 0.23704747474 -1.276641285046
C 0.268667943638 0.477026010244 -1.303801099477
H -1.729185439434 1.078328369804 -1.591443987681
H -1.532964707503 0.006393818493 -0.319676216991
H -1.472332022759 -0.5477669921 -1.899288227089
H 0.462570813421 1.335265963741 -0.653112119847
H 0.526321579945 0.745604215753 -2.332897926469
C 1.12713192387 -0.717973678693 -0.851714367107
H 0.891566415844 -0.996684037384 0.1782998807
H 2.188160012123 -0.46111514303 -0.901762166216
H 0.954891551561 -1.584286832477 -1.495100618459
O -0.028572329229 -0.0215481838 2.987960064323
H -0.357389191707 -0.094507243954 2.087028315248
H 0.813859684887 0.436055160986 2.910313104092
