14
Coordinates from XML
N 0.88753429089 -0.621872704445 -1.858877681152
C -0.392236515315 0.137477838173 -1.631782706497
H 0.985907727737 -0.883106709856 -2.85442195201
H 0.903857937801 -1.48810163764 -1.294874424736
H 1.70539819381 -0.047880267612 -1.593605494787
H -1.208601165154 -0.512346315933 -1.961703327457
H -0.355479038525 1.01891495624 -2.279299056014
C -0.637038263122 0.575651069802 -0.176638933925
H -0.686475605819 -0.291738848999 0.486151078982
H -1.582387241953 1.118469370616 -0.099663001821
H 0.163638841766 1.233653169301 0.169858548697
O -0.000629944403 -0.020332684375 3.115497971931
H -0.248502472389 0.847266061699 3.448594347895
H 0.256326640388 -0.523021880777 3.894213873498
