14
Coordinates from XML
N 0.509793 -0.286852 -2.37155
C 0.381777 -0.155427 -0.877446
H 1.4167 -0.714061 -2.62461
H 0.4514 0.639585 -2.82654
H -0.244729 -0.882204 -2.75233
H 1.22458 0.455709 -0.540143
H 0.48413 -1.16265 -0.462007
C -0.937531 0.471649 -0.392092
H -1.0549 1.48303 -0.788862
H -0.94918 0.529509 0.699136
H -1.79266 -0.129182 -0.711246
O 0.061922 -0.00883784 3.26879
H -0.373336 0.82377 3.06278
H -0.610709 -0.682828 3.13304
