14
Coordinates from XML
N 0.688036 -0.190856 -2.27572
C 0.352222 -0.0771708 -0.81274
H 1.68366 -0.438369 -2.40413
H 0.512869 0.704529 -2.76185
H 0.113048 -0.921783 -2.72724
H 1.01563 0.685858 -0.394121
H 0.590401 -1.04369 -0.358124
C -1.11183 0.289112 -0.509806
H -1.36775 1.25696 -0.947845
H -1.27016 0.350365 0.569749
H -1.79146 -0.466049 -0.91222
O -0.0011013 -0.00606065 3.2717
H -0.500086 -0.518233 2.62842
H 0.515985 0.614876 2.74999
