14
Coordinates from XML
N 0.177909158021 0.571567403569 -0.098086785445
C 0.129487012385 0.385004048016 -1.591019503513
H 0.489078734286 1.528165940449 0.140914611929
H 0.836022066624 -0.098983131122 0.333153378913
H -0.755864072853 0.422227748616 0.319649057955
H 1.136390977627 0.588569415138 -1.968214194604
H -0.556577804942 1.142751859382 -1.981779338829
C -0.323626858262 -1.010656212952 -2.055978998181
H 0.354585211083 -1.782301466078 -1.683565363061
H -0.331482930368 -1.060923100186 -3.147616857446
H -1.332036154576 -1.230315819208 -1.696853054834
O 0.023661518086 -0.03528912805 2.998215259406
H -0.362208031693 -0.364136227764 3.815580444353
H -0.013775729761 0.922984288121 3.071917921055
