14
Coordinates from XML
N -0.393958 -0.531036 -2.4287
C -0.200833 -0.325919 -0.949972
H -0.962949 -1.37519 -2.60947
H 0.516739 -0.647965 -2.90375
H -0.876856 0.279933 -2.85045
H 0.28279 -1.22924 -0.565669
H -1.19924 -0.242373 -0.509787
C 0.635851 0.909031 -0.5702
H 1.64123 0.840879 -0.992897
H 0.72664 0.984107 0.516254
H 0.164835 1.82411 -0.937459
O -0.00650845 0.0344722 3.56379
H -0.427382 -0.801239 3.34114
H 0.531597 0.25527 2.79775
