14
Coordinates from XML
N 0.487405 -1.04667 -1.65672
C -0.243661 -0.149955 -0.693687
H 0.501728 -2.02075 -1.31032
H 1.46494 -0.733082 -1.77836
H 0.0282056 -1.04034 -2.58292
H 0.273319 -0.229537 0.267545
H -1.2542 -0.556591 -0.588708
C -0.323185 1.32803 -1.11631
H 0.676963 1.75638 -1.21787
H -0.867801 1.90656 -0.366008
H -0.844669 1.43055 -2.07112
O 0.0549941 -0.0352656 3.03515
H -0.849956 -0.360982 3.0254
H -0.0241679 0.923223 3.02275
