14
Coordinates from XML
N 0.006063866693 0.373267642754 0.037172149301
C 0.487805045178 0.189614317998 -1.377110560682
H 0.693826430306 0.911438071212 0.590691959177
H -0.133670474198 -0.541675207807 0.497685551476
H -0.892431394964 0.884305022029 0.054056339031
H 1.45155916934 -0.325503355755 -1.3187833865
H 0.644208070842 1.190968865113 -1.789890275102
C -0.466195824945 -0.601822135481 -2.289731925437
H -0.628600911407 -1.609566773632 -1.899635455996
H -0.043285539244 -0.688390895292 -3.293681343323
H -1.433092025682 -0.098859698508 -2.368799103806
O 0.054258221595 0.034595896202 2.959365295724
H -0.024468641546 -0.920788778998 2.880855593053
H -0.836712805314 0.370787266142 2.824207750668
