14
Coordinates from XML
N -0.369825 -0.624985 -0.268247
C 0.438972 -0.294321 -1.49402
H -0.0247341 -1.49344 0.17416
H -1.36514 -0.760757 -0.512441
H -0.308618 0.13763 0.427029
H 0.356273 -1.15203 -2.16861
H 1.47932 -0.19661 -1.16891
C 0.00596208 0.98579 -2.23103
H -1.02885 0.905014 -2.57269
H 0.641764 1.15227 -3.10413
H 0.0897634 1.8569 -1.57661
O -0.00539264 -0.0619259 3.25783
H -0.203546 0.287072 4.13194
H 0.290094 0.697323 2.74661
