14
Coordinates from XML
N 0.872695 0.527756 -0.0213524
C 0.122695 0.397756 -1.28535
H 1.2207 1.47976 0.127648
H 1.6677 -0.117244 0.0386476
H 0.262695 0.317756 0.804648
H 0.805695 0.673756 -2.09335
H -0.706305 1.10976 -1.24335
C -0.369305 -1.02424 -1.43435
H 0.465695 -1.73324 -1.44835
H -0.923305 -1.13624 -2.37235
H -1.0383 -1.30124 -0.612352
O -0.574725 0.0586764 2.15003
H -0.571725 -0.710324 2.75903
H -1.25072 0.612676 2.59703
