14
Coordinates from XML
N 0.86808 0.526329 -0.0139375
C 0.11808 0.396329 -1.27794
H 1.21608 1.47833 0.135063
H 1.66308 -0.118671 0.0460625
H 0.25808 0.316329 0.812063
H 0.80108 0.672329 -2.08594
H -0.71092 1.10833 -1.23594
C -0.37392 -1.02567 -1.42694
H 0.46108 -1.73467 -1.44094
H -0.92792 -1.13767 -2.36494
H -1.04292 -1.30267 -0.604937
O -0.56292 0.0623286 2.13106
H -0.55992 -0.706671 2.74006
H -1.23892 0.616329 2.57806
