14
Coordinates from XML
N 1.013545627935 0.57133260909 -0.247639639556
C 0.263545627935 0.44133260909 -1.511639639556
H 1.361545627935 1.52333260909 -0.098639639556
H 1.808545627935 -0.07366739091 -0.187639639556
H 0.403545627935 0.36133260909 0.578360360444
H 0.946545627935 0.71733260909 -2.319639639556
H -0.565454372065 1.15333260909 -1.469639639556
C -0.228454372065 -0.98066739091 -1.660639639556
H 0.606545627935 -1.68966739091 -1.674639639556
H -0.782454372065 -1.09266739091 -2.598639639556
H -0.897454372065 -1.25766739091 -0.838639639556
O -0.93497873896 -0.052778461789 2.728803283629
H -0.93197873896 -0.821778461789 3.337803283629
H -1.61097873896 0.501221538211 3.175803283629
