14
Coordinates from XML
N 1.017167184958 0.572453042079 -0.253457951022
C 0.267167184958 0.442453042079 -1.517457951022
H 1.365167184958 1.524453042079 -0.104457951022
H 1.812167184958 -0.072546957921 -0.193457951022
H 0.407167184958 0.362453042079 0.572542048978
H 0.950167184958 0.718453042079 -2.325457951022
H -0.561832815042 1.154453042079 -1.475457951022
C -0.224832815042 -0.979546957921 -1.666457951022
H 0.610167184958 -1.688546957921 -1.680457951022
H -0.778832815042 -1.091546957921 -2.604457951022
H -0.893832815042 -1.256546957921 -0.844457951022
O -0.944241606009 -0.055644196539 2.743684795977
H -0.941241606009 -0.824644196539 3.352684795977
H -1.620241606009 0.498355803461 3.190684795977
