14
Coordinates from XML
N 1.018977963469 0.573013258573 -0.256367106754
C 0.268977963469 0.443013258573 -1.520367106754
H 1.366977963469 1.525013258573 -0.107367106754
H 1.813977963469 -0.071986741427 -0.196367106754
H 0.408977963469 0.363013258573 0.569632893246
H 0.951977963469 0.719013258573 -2.328367106754
H -0.560022036531 1.155013258573 -1.478367106754
C -0.223022036531 -0.978986741427 -1.669367106754
H 0.611977963469 -1.687986741427 -1.683367106754
H -0.777022036531 -1.090986741427 -2.607367106754
H -0.892022036531 -1.255986741427 -0.847367106754
O -0.948873039534 -0.057077063915 2.751125552151
H -0.945873039534 -0.826077063915 3.360125552151
H -1.624873039534 0.496922936085 3.198125552151
