14
Coordinates from XML
N 1.02441 0.574694 -0.265095
C 0.27441 0.444694 -1.52909
H 1.37241 1.52669 -0.116095
H 1.81941 -0.0703061 -0.205095
H 0.41441 0.364694 0.560905
H 0.95741 0.720694 -2.33709
H -0.55459 1.15669 -1.48709
C -0.21759 -0.977306 -1.67809
H 0.61741 -1.68631 -1.69209
H -0.77159 -1.08931 -2.61609
H -0.88659 -1.25431 -0.856095
O -0.962767 -0.0613757 2.77345
H -0.959767 -0.830376 3.38245
H -1.63877 0.492624 3.22045
