14
Coordinates from XML
N 1.02803 0.575814 -0.270913
C 0.278032 0.445814 -1.53491
H 1.37603 1.52781 -0.121913
H 1.82303 -0.0691857 -0.210913
H 0.418032 0.365814 0.555087
H 0.961032 0.721814 -2.34291
H -0.550968 1.15781 -1.49291
C -0.213968 -0.976186 -1.68391
H 0.621032 -1.68519 -1.69791
H -0.767968 -1.08819 -2.62191
H -0.882968 -1.25319 -0.861913
O -0.97203 -0.0642414 2.78833
H -0.96903 -0.833241 3.39733
H -1.64803 0.489759 3.23533
