14
Coordinates from XML
N 1.03527 0.578055 -0.28255
C 0.285275 0.448055 -1.54655
H 1.38327 1.53006 -0.13355
H 1.83027 -0.0669448 -0.22255
H 0.425275 0.368055 0.54345
H 0.968275 0.724055 -2.35455
H -0.543725 1.16006 -1.50455
C -0.206725 -0.973945 -1.69555
H 0.628275 -1.68294 -1.70955
H -0.760725 -1.08594 -2.63355
H -0.875725 -1.25094 -0.87355
O -0.990556 -0.0699729 2.81809
H -0.987556 -0.838973 3.42709
H -1.66656 0.484027 3.26509
