14
Coordinates from XML
N 1.03709 0.578615 -0.285459
C 0.287086 0.448615 -1.54946
H 1.38509 1.53062 -0.136459
H 1.83209 -0.0663846 -0.225459
H 0.427086 0.368615 0.540541
H 0.970086 0.724615 -2.35746
H -0.541914 1.16062 -1.50746
C -0.204914 -0.973385 -1.69846
H 0.630086 -1.68238 -1.71246
H -0.758914 -1.08538 -2.63646
H -0.873914 -1.25038 -0.876459
O -0.995187 -0.0714057 2.82553
H -0.992187 -0.840406 3.43453
H -1.67119 0.482594 3.27253
