14
Coordinates from XML
N 1.037085748585 0.578615423518 -0.285458664083
C 0.287085748585 0.448615423518 -1.549458664083
H 1.385085748585 1.530615423518 -0.136458664083
H 1.832085748585 -0.066384576482 -0.225458664083
H 0.427085748585 0.368615423518 0.540541335917
H 0.970085748585 0.724615423518 -2.357458664083
H -0.541914251415 1.160615423518 -1.507458664083
C -0.204914251415 -0.973384576482 -1.698458664083
H 0.630085748585 -1.682384576482 -1.712458664083
H -0.758914251415 -1.085384576482 -2.636458664083
H -0.873914251415 -1.250384576482 -0.876458664083
O -0.995187374779 -0.071405737669 2.82553311389
H -0.992187374779 -0.840405737669 3.43453311389
H -1.671187374779 0.482594262331 3.27253311389
