14
Coordinates from XML
N 1.042518084119 0.580296073001 -0.294186131282
C 0.292518084119 0.450296073001 -1.558186131282
H 1.390518084119 1.532296073001 -0.145186131282
H 1.837518084119 -0.064703926999 -0.234186131282
H 0.432518084119 0.370296073001 0.531813868718
H 0.975518084119 0.726296073001 -2.366186131282
H -0.536481915881 1.162296073001 -1.516186131282
C -0.199481915881 -0.971703926999 -1.707186131282
H 0.635518084119 -1.680703926999 -1.721186131282
H -0.753481915881 -1.083703926999 -2.645186131282
H -0.868481915881 -1.248703926999 -0.885186131282
O -1.009081675352 -0.075704339795 2.847855382412
H -1.006081675352 -0.844704339795 3.456855382412
H -1.685081675352 0.478295660205 3.294855382412
