14
Coordinates from XML
N 1.046139641142 0.58141650599 -0.300004442748
C 0.296139641142 0.45141650599 -1.564004442748
H 1.394139641142 1.53341650599 -0.151004442748
H 1.841139641142 -0.06358349401 -0.240004442748
H 0.436139641142 0.37141650599 0.525995557252
H 0.979139641142 0.72741650599 -2.372004442748
H -0.532860358858 1.16341650599 -1.522004442748
C -0.195860358858 -0.97058349401 -1.713004442748
H 0.639139641142 -1.67958349401 -1.727004442748
H -0.749860358858 -1.08258349401 -2.651004442748
H -0.864860358858 -1.24758349401 -0.891004442748
O -1.018344542401 -0.078570074546 2.86273689476
H -1.015344542401 -0.847570074546 3.47173689476
H -1.694344542401 0.475429925454 3.30973689476
