14
Coordinates from XML
N 1.05519 0.584218 -0.31455
C 0.305194 0.454218 -1.57855
H 1.40319 1.53622 -0.16555
H 1.85019 -0.0607824 -0.25455
H 0.445194 0.374218 0.51145
H 0.988194 0.730218 -2.38655
H -0.523806 1.16622 -1.53655
C -0.186806 -0.967782 -1.72755
H 0.648194 -1.67678 -1.74155
H -0.740806 -1.07978 -2.66555
H -0.855806 -1.24478 -0.90555
O -1.0415 -0.0857344 2.89994
H -1.0385 -0.854734 3.50894
H -1.7175 0.468266 3.34694
