14
Coordinates from XML
N 1.057 0.584778 -0.317459
C 0.307004 0.454778 -1.58146
H 1.405 1.53678 -0.168459
H 1.852 -0.0602222 -0.257459
H 0.447004 0.374778 0.508541
H 0.990004 0.730778 -2.38946
H -0.521996 1.16678 -1.53946
C -0.184996 -0.967222 -1.73046
H 0.650004 -1.67622 -1.74446
H -0.738996 -1.07922 -2.66846
H -0.853996 -1.24422 -0.908459
O -1.04613 -0.0871673 2.90738
H -1.04313 -0.856167 3.51638
H -1.72213 0.466833 3.35438
