14
Coordinates from XML
N 1.057004312211 0.584777804956 -0.317459377145
C 0.307004312211 0.454777804956 -1.581459377145
H 1.405004312211 1.536777804956 -0.168459377145
H 1.852004312211 -0.060222195044 -0.257459377145
H 0.447004312211 0.374777804956 0.508540622855
H 0.990004312211 0.730777804956 -2.389459377145
H -0.521995687789 1.166777804956 -1.539459377145
C -0.184995687789 -0.967222195044 -1.730459377145
H 0.650004312211 -1.676222195044 -1.744459377145
H -0.738995687789 -1.079222195044 -2.668459377145
H -0.853995687789 -1.244222195044 -0.908459377145
O -1.046133143548 -0.087167278799 2.907381431804
H -1.043133143548 -0.856167278799 3.516381431804
H -1.722133143548 0.466832721201 3.354381431804
