14
Coordinates from XML
N 1.05882 0.585338 -0.320369
C 0.308815 0.455338 -1.58437
H 1.40682 1.53734 -0.171369
H 1.85382 -0.059662 -0.260369
H 0.448815 0.375338 0.505631
H 0.991815 0.731338 -2.39237
H -0.520185 1.16734 -1.54237
C -0.183185 -0.966662 -1.73337
H 0.651815 -1.67566 -1.74737
H -0.737185 -1.07866 -2.67137
H -0.852185 -1.24366 -0.911369
O -1.05076 -0.0886001 2.91482
H -1.04776 -0.8576 3.52382
H -1.72676 0.4654 3.36182
