14
Coordinates from XML
N 1.06063 0.585898 -0.323278
C 0.310626 0.455898 -1.58728
H 1.40863 1.5379 -0.174278
H 1.85563 -0.0591018 -0.263278
H 0.450626 0.375898 0.502722
H 0.993626 0.731898 -2.39528
H -0.518374 1.1679 -1.54528
C -0.181374 -0.966102 -1.73628
H 0.653626 -1.6751 -1.75028
H -0.735374 -1.0781 -2.67428
H -0.850374 -1.2431 -0.914278
O -1.0554 -0.090033 2.92226
H -1.0524 -0.859033 3.53126
H -1.7314 0.463967 3.36926
