14
Coordinates from XML
N 1.062436647746 0.58645845444 -0.326186844344
C 0.312436647746 0.45645845444 -1.590186844344
H 1.410436647746 1.53845845444 -0.177186844344
H 1.857436647746 -0.05854154556 -0.266186844344
H 0.452436647746 0.37645845444 0.499813155656
H 0.995436647746 0.73245845444 -2.398186844344
H -0.516563352254 1.16845845444 -1.548186844344
C -0.179563352254 -0.96554154556 -1.739186844344
H 0.655436647746 -1.67454154556 -1.753186844344
H -0.733563352254 -1.07754154556 -2.677186844344
H -0.848563352254 -1.24254154556 -0.917186844344
O -1.060027444122 -0.091465880925 2.929703700326
H -1.057027444122 -0.860465880925 3.538703700326
H -1.736027444122 0.462534119075 3.376703700326
