14
Coordinates from XML
N 1.06244 0.586458 -0.326187
C 0.312437 0.456458 -1.59019
H 1.41044 1.53846 -0.177187
H 1.85744 -0.0585415 -0.266187
H 0.452437 0.376458 0.499813
H 0.995437 0.732458 -2.39819
H -0.516563 1.16846 -1.54819
C -0.179563 -0.965542 -1.73919
H 0.655437 -1.67454 -1.75319
H -0.733563 -1.07754 -2.67719
H -0.848563 -1.24254 -0.917187
O -1.06003 -0.0914659 2.9297
H -1.05703 -0.860466 3.5387
H -1.73603 0.462534 3.3767
