14
Coordinates from XML
N 1.067868983281 0.588139103923 -0.334914311542
C 0.317868983281 0.458139103923 -1.598914311542
H 1.415868983281 1.540139103923 -0.185914311542
H 1.862868983281 -0.056860896077 -0.274914311542
H 0.457868983281 0.378139103923 0.491085688458
H 1.000868983281 0.734139103923 -2.406914311542
H -0.511131016719 1.170139103923 -1.556914311542
C -0.174131016719 -0.963860896077 -1.747914311542
H 0.660868983281 -1.672860896077 -1.761914311542
H -0.728131016719 -1.075860896077 -2.685914311542
H -0.843131016719 -1.240860896077 -0.925914311542
O -1.073921744696 -0.095764483051 2.952025968848
H -1.070921744696 -0.864764483051 3.561025968848
H -1.749921744696 0.458235516949 3.399025968848
