14
Coordinates from XML
N 1.06968 0.588699 -0.337823
C 0.31968 0.458699 -1.60182
H 1.41768 1.5407 -0.188823
H 1.86468 -0.0563007 -0.277823
H 0.45968 0.378699 0.488177
H 1.00268 0.734699 -2.40982
H -0.50932 1.1707 -1.55982
C -0.17232 -0.963301 -1.75082
H 0.66268 -1.6723 -1.76482
H -0.72632 -1.0753 -2.68882
H -0.84132 -1.2403 -0.928823
O -1.07855 -0.0971974 2.95947
H -1.07555 -0.866197 3.56847
H -1.75455 0.456803 3.40647
