14
Coordinates from XML
N 1.00501 0.56869 -0.233919
C 0.255005 0.43869 -1.49792
H 1.35301 1.52069 -0.0849188
H 1.80001 -0.0763096 -0.173919
H 0.395005 0.35869 0.592081
H 0.938005 0.71469 -2.30592
H -0.573995 1.15069 -1.45592
C -0.236995 -0.98331 -1.64692
H 0.598005 -1.69231 -1.66092
H -0.790995 -1.09531 -2.58492
H -0.905995 -1.26031 -0.824919
O -0.913135 -0.0460204 2.69371
H -0.910135 -0.81502 3.30271
H -1.58913 0.50798 3.14071
