14
Coordinates from XML
N 1.008336700139 0.569721077226 -0.239271094168
C 0.258336700139 0.439721077226 -1.503271094168
H 1.356336700139 1.521721077226 -0.090271094168
H 1.803336700139 -0.075278922774 -0.179271094168
H 0.398336700139 0.359721077226 0.586728905832
H 0.941336700139 0.715721077226 -2.311271094168
H -0.570663299861 1.151721077226 -1.461271094168
C -0.233663299861 -0.982278922774 -1.652271094168
H 0.601336700139 -1.691278922774 -1.666271094168
H -0.787663299861 -1.094278922774 -2.590271094168
H -0.902663299861 -1.259278922774 -0.830271094168
O -0.921655849016 -0.048656642001 2.707399030479
H -0.918655849016 -0.817656642001 3.316399030479
H -1.597655849016 0.505343357999 3.154399030479
