14
Coordinates from XML
N 1.00834 0.569721 -0.239271
C 0.258337 0.439721 -1.50327
H 1.35634 1.52172 -0.0902711
H 1.80334 -0.0752789 -0.179271
H 0.398337 0.359721 0.586729
H 0.941337 0.715721 -2.31127
H -0.570663 1.15172 -1.46127
C -0.233663 -0.982279 -1.65227
H 0.601337 -1.69128 -1.66627
H -0.787663 -1.09428 -2.59027
H -0.902663 -1.25928 -0.830271
O -0.921656 -0.0486566 2.7074
H -0.918656 -0.817657 3.3164
H -1.59766 0.505343 3.1544
