14
Coordinates from XML
N 0.956032 0.553539 -0.155239
C 0.206032 0.423539 -1.41924
H 1.30403 1.50554 -0.00623931
H 1.75103 -0.0914609 -0.0952393
H 0.346032 0.343539 0.670761
H 0.889032 0.699539 -2.22724
H -0.622968 1.13554 -1.37724
C -0.285968 -0.998461 -1.56824
H 0.549032 -1.70746 -1.58224
H -0.839968 -1.11046 -2.50624
H -0.954968 -1.27546 -0.746239
O -0.787876 -0.00726786 2.49247
H -0.784876 -0.776268 3.10147
H -1.46388 0.546732 2.93947
