14
Coordinates from XML
N 0.9644082437 0.556130543809 -0.168696631267
C 0.2144082437 0.426130543809 -1.432696631267
H 1.3124082437 1.508130543809 -0.019696631267
H 1.7594082437 -0.088869456191 -0.108696631267
H 0.3544082437 0.346130543809 0.657303368733
H 0.8974082437 0.702130543809 -2.240696631267
H -0.6145917563 1.138130543809 -1.390696631267
C -0.2775917563 -0.995869456191 -1.581696631267
H 0.5574082437 -1.704869456191 -1.595696631267
H -0.8315917563 -1.107869456191 -2.519696631267
H -0.9465917563 -1.272869456191 -0.759696631267
O -0.809299906788 -0.01389609471 2.526890519153
H -0.806299906788 -0.78289609471 3.135890519153
H -1.485299906788 0.54010390529 2.973890519153
