14
Coordinates from XML
N 0.972784634094 0.558722021471 -0.182153950303
C 0.222784634094 0.428722021471 -1.446153950303
H 1.320784634094 1.510722021471 -0.033153950303
H 1.767784634094 -0.086277978529 -0.122153950303
H 0.362784634094 0.348722021471 0.643846049697
H 0.905784634094 0.704722021471 -2.254153950303
H -0.606215365906 1.140722021471 -1.404153950303
C -0.269215365906 -0.993277978529 -1.595153950303
H 0.565784634094 -1.702277978529 -1.609153950303
H -0.823215365906 -1.105277978529 -2.533153950303
H -0.938215365906 -1.270277978529 -0.773153950303
O -0.830724225133 -0.020524324746 2.561310343631
H -0.827724225133 -0.789524324746 3.170310343631
H -1.506724225133 0.533475675254 3.008310343631
