14
Coordinates from XML
N 0.989537 0.563905 -0.209069
C 0.239537 0.433905 -1.47307
H 1.33754 1.5159 -0.0600686
H 1.78454 -0.081095 -0.149069
H 0.379537 0.353905 0.616931
H 0.922537 0.709905 -2.28107
H -0.589463 1.1459 -1.43107
C -0.252463 -0.988095 -1.62207
H 0.582537 -1.6971 -1.63607
H -0.806463 -1.1001 -2.56007
H -0.921463 -1.2651 -0.800069
O -0.873573 -0.0337808 2.63015
H -0.870573 -0.802781 3.23915
H -1.54957 0.520219 3.07715
