14
Coordinates from XML
N 1.006290195668 0.569087932116 -0.235983226449
C 0.256290195668 0.439087932116 -1.499983226449
H 1.354290195668 1.521087932116 -0.086983226449
H 1.801290195668 -0.075912067884 -0.175983226449
H 0.396290195668 0.359087932116 0.590016773551
H 0.939290195668 0.715087932116 -2.307983226449
H -0.572709804332 1.151087932116 -1.457983226449
C -0.235709804332 -0.982912067884 -1.648983226449
H 0.599290195668 -1.691912067884 -1.662983226449
H -0.789709804332 -1.094912067884 -2.586983226449
H -0.904709804332 -1.259912067884 -0.826983226449
O -0.916421498512 -0.04703724489 2.698989641544
H -0.913421498512 -0.81603724489 3.307989641544
H -1.592421498512 0.50696275511 3.145989641544
