14
Coordinates from XML
N 1.00629 0.569088 -0.235983
C 0.25629 0.439088 -1.49998
H 1.35429 1.52109 -0.0869832
H 1.80129 -0.0759121 -0.175983
H 0.39629 0.359088 0.590017
H 0.93929 0.715088 -2.30798
H -0.57271 1.15109 -1.45798
C -0.23571 -0.982912 -1.64898
H 0.59929 -1.69191 -1.66298
H -0.78971 -1.09491 -2.58698
H -0.90471 -1.25991 -0.826983
O -0.916421 -0.0470372 2.69899
H -0.913421 -0.816037 3.30799
H -1.59242 0.506963 3.14599
