14
Coordinates from XML
N 1.073301318815 0.589819753406 -0.343641778741
C 0.323301318815 0.459819753406 -1.607641778741
H 1.421301318815 1.541819753406 -0.194641778741
H 1.868301318815 -0.055180246594 -0.283641778741
H 0.463301318815 0.379819753406 0.482358221259
H 1.006301318815 0.735819753406 -2.415641778741
H -0.505698681185 1.171819753406 -1.565641778741
C -0.168698681185 -0.962180246594 -1.756641778741
H 0.666301318815 -1.671180246594 -1.770641778741
H -0.722698681185 -1.074180246594 -2.694641778741
H -0.837698681185 -1.239180246594 -0.934641778741
O -1.087816045269 -0.100063085178 2.97434823737
H -1.084816045269 -0.869063085178 3.58334823737
H -1.763816045269 0.453936914822 3.42134823737
