14
Coordinates from XML
N 0.0499464 -0.687635 -2.11115
C -0.265297 -0.449623 -0.616135
H -0.208122 -1.63482 -2.39755
H 1.04857 -0.558007 -2.29104
H -0.464307 -0.0236297 -2.69515
H 0.288263 -1.21096 -0.0710616
H -1.3305 -0.638991 -0.503457
C 0.122707 0.960668 -0.203176
H 1.19155 1.14554 -0.321045
H -0.112048 1.0952 0.852443
H -0.433218 1.71982 -0.755553
O 0.0708978 0.245596 2.60388
H 0.608645 0.00690376 3.37585
H -0.710212 -0.329527 2.56948
