14
Coordinates from XML
N 0.049946372914 -0.687634909924 -2.111150982428
C -0.265297387375 -0.449623246216 -0.616134618644
H -0.208122398004 -1.634823220905 -2.397547594218
H 1.048568028509 -0.558007390271 -2.291041370336
H -0.46430705854 -0.023629676298 -2.695146332189
H 0.288263111493 -1.21095554283 -0.071061583232
H -1.330495954379 -0.638991491346 -0.503456851483
C 0.122707475158 0.960667537536 -0.203176023992
H 1.191548347933 1.145543204244 -0.321045271339
H -0.112048016042 1.095202709502 0.852442664921
H -0.433217675094 1.719818906114 -0.755553282745
O 0.070897848625 0.245596164103 2.603884719195
H 0.608644703349 0.006903759929 3.375854759347
H -0.710212139272 -0.329527138685 2.569477454453
