14
Coordinates from XML
N 0.0499464 -0.687635 -2.20672
C -0.265297 -0.449623 -0.711702
H -0.208122 -1.63482 -2.49311
H 1.04857 -0.558007 -2.38661
H -0.464307 -0.0236297 -2.79071
H 0.288263 -1.21096 -0.166629
H -1.3305 -0.638991 -0.599024
C 0.122707 0.960668 -0.298743
H 1.19155 1.14554 -0.416613
H -0.112048 1.0952 0.756875
H -0.433218 1.71982 -0.851121
O 0.0708978 0.245596 2.84832
H 0.608645 0.00690376 3.62029
H -0.710212 -0.329527 2.81391
