14
Coordinates from XML
N 0.049946372914 -0.687634909924 -2.392231223406
C -0.265297387375 -0.449623246216 -0.897214859622
H -0.208122398004 -1.634823220905 -2.678627835197
H 1.048568028509 -0.558007390271 -2.572121611315
H -0.46430705854 -0.023629676298 -2.976226573168
H 0.288263111493 -1.21095554283 -0.352141824211
H -1.330495954379 -0.638991491346 -0.784537092462
C 0.122707475158 0.960667537536 -0.484256264971
H 1.191548347933 1.145543204244 -0.602125512317
H -0.112048016042 1.095202709502 0.571362423942
H -0.433217675094 1.719818906114 -1.036633523724
O 0.070897848625 0.245596164103 3.322804478216
H 0.608644703349 0.006903759929 4.094774518369
H -0.710212139272 -0.329527138685 3.288397213474
