14
Coordinates from XML
N 0.049946372914 -0.687634909924 -2.617095416189
C -0.265297387375 -0.449623246216 -1.122079052405
H -0.208122398004 -1.634823220905 -2.903492027979
H 1.048568028509 -0.558007390271 -2.796985804098
H -0.46430705854 -0.023629676298 -3.201090765951
H 0.288263111493 -1.21095554283 -0.577006016994
H -1.330495954379 -0.638991491346 -1.009401285245
C 0.122707475158 0.960667537536 -0.709120457754
H 1.191548347933 1.145543204244 -0.8269897051
H -0.112048016042 1.095202709502 0.346498231159
H -0.433217675094 1.719818906114 -1.261497716507
O 0.070897848625 0.245596164103 3.897940285433
H 0.608644703349 0.006903759929 4.669910325586
H -0.710212139272 -0.329527138685 3.863533020691
