14
Coordinates from XML
N 0.0499464 -0.687635 -2.6171
C -0.265297 -0.449623 -1.12208
H -0.208122 -1.63482 -2.90349
H 1.04857 -0.558007 -2.79699
H -0.464307 -0.0236297 -3.20109
H 0.288263 -1.21096 -0.577006
H -1.3305 -0.638991 -1.0094
C 0.122707 0.960668 -0.70912
H 1.19155 1.14554 -0.82699
H -0.112048 1.0952 0.346498
H -0.433218 1.71982 -1.2615
O 0.0708978 0.245596 3.89794
H 0.608645 0.00690376 4.66991
H -0.710212 -0.329527 3.86353
