14
Coordinates from XML
N 1.10804 0.435121 -0.413146
C -0.00174492 0.23714 -1.47158
H 1.77864 1.14825 -0.709007
H 1.61557 -0.439614 -0.259303
H 0.702646 0.725574 0.479995
H 0.510622 -0.0344737 -2.39183
H -0.466318 1.21218 -1.60068
C -0.99122 -0.824624 -1.02035
H -0.519001 -1.79955 -0.889867
H -1.75797 -0.939032 -1.78622
H -1.49943 -0.548224 -0.0952538
O -0.273565 0.124395 2.38951
H -0.215252 -0.828261 2.21307
H 0.619683 0.478254 2.52726
