14
Coordinates from XML
N 1.10804 0.435121 -0.43001
C -0.00174492 0.23714 -1.48844
H 1.77864 1.14825 -0.725872
H 1.61557 -0.439614 -0.276168
H 0.702646 0.725574 0.46313
H 0.510622 -0.0344737 -2.4087
H -0.466318 1.21218 -1.61754
C -0.99122 -0.824624 -1.03722
H -0.519001 -1.79955 -0.906731
H -1.75797 -0.939032 -1.80309
H -1.49943 -0.548224 -0.112119
O -0.273565 0.124395 2.43264
H -0.215252 -0.828261 2.25621
H 0.619683 0.478254 2.5704
