14
Coordinates from XML
N 1.108043224856 0.435120558685 -0.430010361451
C -0.001744916911 0.237139712378 -1.48844126299
H 1.778637146244 1.148253105897 -0.725871763008
H 1.615567786506 -0.439613936693 -0.276168109597
H 0.702645824977 0.725574072518 0.463130061473
H 0.51062194306 -0.034473716123 -2.408695060574
H -0.466317615155 1.212183334836 -1.617540995661
C -0.991219671514 -0.824623701172 -1.037219773438
H -0.519001174449 -1.799547006291 -0.906731371307
H -1.757965315364 -0.93903197757 -1.803086950861
H -1.49942768156 -0.548224151663 -0.112118634838
O -0.273564839284 0.124395136606 2.432642670187
H -0.215252407022 -0.828261365191 2.256209293822
H 0.619682578312 0.478254308985 2.570396884469
