14
Coordinates from XML
N 1.108043224856 0.435120558685 -0.452496780729
C -0.001744916911 0.237139712378 -1.510927682268
H 1.778637146244 1.148253105897 -0.748358182286
H 1.615567786506 -0.439613936693 -0.298654528875
H 0.702645824977 0.725574072518 0.440643642195
H 0.51062194306 -0.034473716123 -2.431181479853
H -0.466317615155 1.212183334836 -1.640027414939
C -0.991219671514 -0.824623701172 -1.059706192716
H -0.519001174449 -1.799547006291 -0.929217790585
H -1.757965315364 -0.93903197757 -1.825573370139
H -1.49942768156 -0.548224151663 -0.134605054116
O -0.273564839284 0.124395136606 2.490156250908
H -0.215252407022 -0.828261365191 2.313722874543
H 0.619682578312 0.478254308985 2.62791046519
