14
Coordinates from XML
N 1.10804 0.435121 -0.469362
C -0.00174492 0.23714 -1.52779
H 1.77864 1.14825 -0.765223
H 1.61557 -0.439614 -0.315519
H 0.702646 0.725574 0.423779
H 0.510622 -0.0344737 -2.44805
H -0.466318 1.21218 -1.65689
C -0.99122 -0.824624 -1.07657
H -0.519001 -1.79955 -0.946083
H -1.75797 -0.939032 -1.84244
H -1.49943 -0.548224 -0.15147
O -0.273565 0.124395 2.53329
H -0.215252 -0.828261 2.35686
H 0.619683 0.478254 2.67105
