14
Coordinates from XML
N 1.108043224856 0.435120558685 -0.486226409646
C -0.001744916911 0.237139712378 -1.544657311186
H 1.778637146244 1.148253105897 -0.782087811203
H 1.615567786506 -0.439613936693 -0.332384157792
H 0.702645824977 0.725574072518 0.406914013277
H 0.51062194306 -0.034473716123 -2.46491110877
H -0.466317615155 1.212183334836 -1.673757043857
C -0.991219671514 -0.824623701172 -1.093435821633
H -0.519001174449 -1.799547006291 -0.962947419503
H -1.757965315364 -0.93903197757 -1.859302999057
H -1.49942768156 -0.548224151663 -0.168334683034
O -0.273564839284 0.124395136606 2.576426621991
H -0.215252407022 -0.828261365191 2.399993245626
H 0.619682578312 0.478254308985 2.714180836273
