14
Coordinates from XML
N 1.10804 0.435121 -0.508713
C -0.00174492 0.23714 -1.56714
H 1.77864 1.14825 -0.804574
H 1.61557 -0.439614 -0.354871
H 0.702646 0.725574 0.384428
H 0.510622 -0.0344737 -2.4874
H -0.466318 1.21218 -1.69624
C -0.99122 -0.824624 -1.11592
H -0.519001 -1.79955 -0.985434
H -1.75797 -0.939032 -1.88179
H -1.49943 -0.548224 -0.190821
O -0.273565 0.124395 2.63394
H -0.215252 -0.828261 2.45751
H 0.619683 0.478254 2.77169
