14
Coordinates from XML
N 1.10804 0.435121 -0.525578
C -0.00174492 0.23714 -1.58401
H 1.77864 1.14825 -0.821439
H 1.61557 -0.439614 -0.371735
H 0.702646 0.725574 0.367563
H 0.510622 -0.0344737 -2.50426
H -0.466318 1.21218 -1.71311
C -0.99122 -0.824624 -1.13279
H -0.519001 -1.79955 -1.0023
H -1.75797 -0.939032 -1.89865
H -1.49943 -0.548224 -0.207686
O -0.273565 0.124395 2.67708
H -0.215252 -0.828261 2.50064
H 0.619683 0.478254 2.81483
