14
Coordinates from XML
N 1.108043224856 0.435120558685 -0.525577643383
C -0.001744916911 0.237139712378 -1.584008544923
H 1.778637146244 1.148253105897 -0.82143904494
H 1.615567786506 -0.439613936693 -0.371735391529
H 0.702645824977 0.725574072518 0.36756277954
H 0.51062194306 -0.034473716123 -2.504262342507
H -0.466317615155 1.212183334836 -1.713108277594
C -0.991219671514 -0.824623701172 -1.13278705537
H -0.519001174449 -1.799547006291 -1.00229865324
H -1.757965315364 -0.93903197757 -1.898654232794
H -1.49942768156 -0.548224151663 -0.207685916771
O -0.273564839284 0.124395136606 2.677075388254
H -0.215252407022 -0.828261365191 2.500642011889
H 0.619682578312 0.478254308985 2.814829602536
