14
Coordinates from XML
N 1.108043224856 0.435120558685 -0.542442457842
C -0.001744916911 0.237139712378 -1.600873359382
H 1.778637146244 1.148253105897 -0.838303859399
H 1.615567786506 -0.439613936693 -0.388600205988
H 0.702645824977 0.725574072518 0.350697965081
H 0.51062194306 -0.034473716123 -2.521127156966
H -0.466317615155 1.212183334836 -1.729973092052
C -0.991219671514 -0.824623701172 -1.149651869829
H -0.519001174449 -1.799547006291 -1.019163467698
H -1.757965315364 -0.93903197757 -1.915519047253
H -1.49942768156 -0.548224151663 -0.22455073123
O -0.273564839284 0.124395136606 2.720210573795
H -0.215252407022 -0.828261365191 2.54377719743
H 0.619682578312 0.478254308985 2.857964788077
