14
Coordinates from XML
N 1.10804 0.435121 -0.542442
C -0.00174492 0.23714 -1.60087
H 1.77864 1.14825 -0.838304
H 1.61557 -0.439614 -0.3886
H 0.702646 0.725574 0.350698
H 0.510622 -0.0344737 -2.52113
H -0.466318 1.21218 -1.72997
C -0.99122 -0.824624 -1.14965
H -0.519001 -1.79955 -1.01916
H -1.75797 -0.939032 -1.91552
H -1.49943 -0.548224 -0.224551
O -0.273565 0.124395 2.72021
H -0.215252 -0.828261 2.54378
H 0.619683 0.478254 2.85796
