14
Coordinates from XML
N 1.10804 0.435121 -0.598659
C -0.00174492 0.23714 -1.65709
H 1.77864 1.14825 -0.89452
H 1.61557 -0.439614 -0.444816
H 0.702646 0.725574 0.294482
H 0.510622 -0.0344737 -2.57734
H -0.466318 1.21218 -1.78619
C -0.99122 -0.824624 -1.20587
H -0.519001 -1.79955 -1.07538
H -1.75797 -0.939032 -1.97174
H -1.49943 -0.548224 -0.280767
O -0.273565 0.124395 2.86399
H -0.215252 -0.828261 2.68756
H 0.619683 0.478254 3.00175
