14
Coordinates from XML
N 1.108043224856 0.435120558685 -0.638009739775
C -0.001744916911 0.237139712378 -1.696440641314
H 1.778637146244 1.148253105897 -0.933871141332
H 1.615567786506 -0.439613936693 -0.484167487921
H 0.702645824977 0.725574072518 0.255130683149
H 0.51062194306 -0.034473716123 -2.616694438899
H -0.466317615155 1.212183334836 -1.825540373985
C -0.991219671514 -0.824623701172 -1.245219151762
H -0.519001174449 -1.799547006291 -1.114730749631
H -1.757965315364 -0.93903197757 -2.011086329185
H -1.49942768156 -0.548224151663 -0.320118013162
O -0.273564839284 0.124395136606 2.964643291863
H -0.215252407022 -0.828261365191 2.788209915498
H 0.619682578312 0.478254308985 3.102397506144
