14
Coordinates from XML
N 1.10804 0.435121 -0.677361
C -0.00174492 0.23714 -1.73579
H 1.77864 1.14825 -0.973222
H 1.61557 -0.439614 -0.523519
H 0.702646 0.725574 0.215779
H 0.510622 -0.0344737 -2.65605
H -0.466318 1.21218 -1.86489
C -0.99122 -0.824624 -1.28457
H -0.519001 -1.79955 -1.15408
H -1.75797 -0.939032 -2.05044
H -1.49943 -0.548224 -0.359469
O -0.273565 0.124395 3.06529
H -0.215252 -0.828261 2.88886
H 0.619683 0.478254 3.20305
