14
Coordinates from XML
N 1.10804 0.435121 -0.862874
C -0.00174492 0.23714 -1.9213
H 1.77864 1.14825 -1.15874
H 1.61557 -0.439614 -0.709032
H 0.702646 0.725574 0.0302665
H 0.510622 -0.0344737 -2.84156
H -0.466318 1.21218 -2.0504
C -0.99122 -0.824624 -1.47008
H -0.519001 -1.79955 -1.33959
H -1.75797 -0.939032 -2.23595
H -1.49943 -0.548224 -0.544982
O -0.273565 0.124395 3.53978
H -0.215252 -0.828261 3.36335
H 0.619683 0.478254 3.67753
