14
Coordinates from XML
N 1.108043224856 0.435120558685 -0.919089980753
C -0.001744916911 0.237139712378 -1.977520882293
H 1.778637146244 1.148253105897 -1.21495138231
H 1.615567786506 -0.439613936693 -0.765247728899
H 0.702645824977 0.725574072518 -0.02594955783
H 0.51062194306 -0.034473716123 -2.897774679877
H -0.466317615155 1.212183334836 -2.106620614964
C -0.991219671514 -0.824623701172 -1.526299392741
H -0.519001174449 -1.799547006291 -1.39581099061
H -1.757965315364 -0.93903197757 -2.292166570164
H -1.49942768156 -0.548224151663 -0.601198254141
O -0.273564839284 0.124395136606 3.683563050884
H -0.215252407022 -0.828261365191 3.507129674519
H 0.619682578312 0.478254308985 3.821317265166
