14
Coordinates from XML
N -0.865777 -0.821932 -0.996977
C 0.408017 -0.0292563 -1.37143
H -1.16232 -1.42971 -1.76409
H -1.63351 -0.182331 -0.778097
H -0.695585 -1.40372 -0.172981
H 0.155728 0.531622 -2.26861
H 1.15935 -0.775207 -1.62097
C 0.838086 0.869738 -0.223889
H 0.0794718 1.61386 0.0236488
H 1.73577 1.41225 -0.519487
H 1.08654 0.301906 0.674066
O -0.257871 0.0887825 2.18508
H 0.408081 0.721999 2.49754
H 0.151362 -0.78699 2.09771
