14
Coordinates from XML
N -0.865777325382 -0.821931950706 -1.1881116512
C 0.40801704602 -0.029256348185 -1.562565115597
H -1.162319530427 -1.4297072932 -1.955223155422
H -1.633508249693 -0.18233070011 -0.969231490768
H -0.695585498832 -1.403717916157 -0.364115326471
H 0.155727667273 0.531621795404 -2.459742067553
H 1.159345433685 -0.775206947084 -1.812100597072
C 0.838085750461 0.86973847175 -0.415023442204
H 0.079471798585 1.613864094597 -0.167485743321
H 1.735771505035 1.412253818235 -0.710621233791
H 1.086536197705 0.301906422489 0.482931650313
O -0.257871117335 0.088782455981 2.673945778499
H 0.408080879623 0.721998544447 2.986401870655
H 0.151362454375 -0.786990060327 2.586573758186
