14
Coordinates from XML
N -0.865777325382 -0.821931950706 -1.323030166869
C 0.40801704602 -0.029256348185 -1.697483631266
H -1.162319530427 -1.4297072932 -2.090141671092
H -1.633508249693 -0.18233070011 -1.104150006437
H -0.695585498832 -1.403717916157 -0.499033842141
H 0.155727667273 0.531621795404 -2.594660583223
H 1.159345433685 -0.775206947084 -1.947019112742
C 0.838085750461 0.86973847175 -0.549941957874
H 0.079471798585 1.613864094597 -0.302404258991
H 1.735771505035 1.412253818235 -0.84553974946
H 1.086536197705 0.301906422489 0.348013134644
O -0.257871117335 0.088782455981 3.019027262829
H 0.408080879623 0.721998544447 3.331483354986
H 0.151362454375 -0.786990060327 2.931655242517
