14
Coordinates from XML
N -0.865777325382 -0.821931950706 -1.45232707772
C 0.40801704602 -0.029256348185 -1.826780542117
H -1.162319530427 -1.4297072932 -2.219438581942
H -1.633508249693 -0.18233070011 -1.233446917288
H -0.695585498832 -1.403717916157 -0.628330752991
H 0.155727667273 0.531621795404 -2.723957494073
H 1.159345433685 -0.775206947084 -2.076316023592
C 0.838085750461 0.86973847175 -0.679238868724
H 0.079471798585 1.613864094597 -0.431701169841
H 1.735771505035 1.412253818235 -0.974836660311
H 1.086536197705 0.301906422489 0.218716223793
O -0.257871117335 0.088782455981 3.349730351979
H 0.408080879623 0.721998544447 3.662186444135
H 0.151362454375 -0.786990060327 3.262358331667
