14
Coordinates from XML
N 1.004196098069 0.5684400627 -0.23261889669
C 0.254196098069 0.4384400627 -1.49661889669
H 1.352196098069 1.5204400627 -0.08361889669
H 1.799196098069 -0.0765599373 -0.17261889669
H 0.394196098069 0.3584400627 0.59338110331
H 0.937196098069 0.7144400627 -2.30461889669
H -0.574803901931 1.1504400627 -1.45461889669
C -0.237803901931 -0.9835599373 -1.64561889669
H 0.597196098069 -1.6925599373 -1.65961889669
H -0.791803901931 -1.0955599373 -2.58361889669
H -0.906803901931 -1.2605599373 -0.82361889669
O -0.911065418925 -0.045380187381 2.690384685424
H -0.908065418925 -0.814380187381 3.299384685424
H -1.587065418925 0.508619812619 3.137384685424
