14
Coordinates from XML
N 1.0042 0.56844 -0.232619
C 0.254196 0.43844 -1.49662
H 1.3522 1.52044 -0.0836189
H 1.7992 -0.0765599 -0.172619
H 0.394196 0.35844 0.593381
H 0.937196 0.71444 -2.30462
H -0.574804 1.15044 -1.45462
C -0.237804 -0.98356 -1.64562
H 0.597196 -1.69256 -1.65962
H -0.791804 -1.09556 -2.58362
H -0.906804 -1.26056 -0.823619
O -0.911065 -0.0453802 2.69038
H -0.908065 -0.81438 3.29938
H -1.58707 0.50862 3.13738
