14
Coordinates from XML
N 1.016760683659 0.572327279192 -0.252804875245
C 0.266760683659 0.442327279192 -1.516804875245
H 1.364760683659 1.524327279192 -0.103804875245
H 1.811760683659 -0.072672720808 -0.192804875245
H 0.406760683659 0.362327279192 0.573195124755
H 0.949760683659 0.718327279192 -2.324804875245
H -0.562239316341 1.154327279192 -1.474804875245
C -0.225239316341 -0.979672720808 -1.665804875245
H 0.609760683659 -1.688672720808 -1.679804875245
H -0.779239316341 -1.091672720808 -2.603804875245
H -0.894239316341 -1.256672720808 -0.843804875245
O -0.943201896442 -0.055322532435 2.742014422142
H -0.940201896442 -0.824322532435 3.351014422142
H -1.619201896442 0.498677467565 3.189014422142
