14
Coordinates from XML
N 1.02304 0.574271 -0.262898
C 0.273043 0.444271 -1.5269
H 1.37104 1.52627 -0.113898
H 1.81804 -0.0707291 -0.202898
H 0.413043 0.364271 0.563102
H 0.956043 0.720271 -2.3349
H -0.555957 1.15627 -1.4849
C -0.218957 -0.977729 -1.6759
H 0.616043 -1.68673 -1.6899
H -0.772957 -1.08973 -2.6139
H -0.887957 -1.25473 -0.853898
O -0.95927 -0.0602937 2.76783
H -0.95627 -0.829294 3.37683
H -1.63527 0.493706 3.21483
