14
Coordinates from XML
N 1.023042976454 0.574270887438 -0.262897864522
C 0.273042976454 0.444270887438 -1.526897864522
H 1.371042976454 1.526270887438 -0.113897864522
H 1.818042976454 -0.070729112562 -0.202897864522
H 0.413042976454 0.364270887438 0.563102135478
H 0.956042976454 0.720270887438 -2.334897864522
H -0.555957023546 1.156270887438 -1.484897864522
C -0.218957023546 -0.977729112562 -1.675897864522
H 0.616042976454 -1.686729112562 -1.689897864522
H -0.772957023546 -1.089729112562 -2.613897864522
H -0.887957023546 -1.254729112562 -0.853897864522
O -0.959270135201 -0.060293704962 2.7678292905
H -0.956270135201 -0.829293704962 3.3768292905
H -1.635270135201 0.493706295038 3.2148292905
