14
Coordinates from XML
N 1.04188985484 0.580101712176 -0.293176832354
C 0.29188985484 0.450101712176 -1.557176832354
H 1.38988985484 1.532101712176 -0.144176832354
H 1.83688985484 -0.064898287824 -0.233176832354
H 0.43188985484 0.370101712176 0.532823167646
H 0.97488985484 0.726101712176 -2.365176832354
H -0.53711014516 1.162101712176 -1.515176832354
C -0.20011014516 -0.971898287824 -1.706176832354
H 0.63488985484 -1.680898287824 -1.720176832354
H -0.75411014516 -1.083898287824 -2.644176832354
H -0.86911014516 -1.248898287824 -0.884176832354
O -1.007474851477 -0.075207222543 2.845273895576
H -1.004474851477 -0.844207222543 3.454273895576
H -1.683474851477 0.478792777457 3.292273895576
