14
Coordinates from XML
N 1.05445444043 0.583988928668 -0.313362810909
C 0.30445444043 0.453988928668 -1.577362810909
H 1.40245444043 1.535988928668 -0.164362810909
H 1.84945444043 -0.061011071332 -0.253362810909
H 0.44445444043 0.373988928668 0.512637189091
H 0.98745444043 0.729988928668 -2.385362810909
H -0.52454555957 1.165988928668 -1.535362810909
C -0.18754555957 -0.968011071332 -1.726362810909
H 0.64745444043 -1.677011071332 -1.740362810909
H -0.74154555957 -1.080011071332 -2.664362810909
H -0.85654555957 -1.245011071332 -0.904362810909
O -1.039611328994 -0.085149567597 2.896903632294
H -1.036611328994 -0.854149567597 3.505903632294
H -1.715611328994 0.468850432403 3.343903632294
