14
Coordinates from XML
N 0.898733065412 -0.143284999312 -0.201634737113
C 0.133783607666 0.638305115667 -1.294827916613
H 1.654979068509 0.419387526548 0.194950458865
H 1.303843157841 -0.998262220737 -0.590619081776
H 0.265543364162 -0.410860640712 0.555916705991
H 0.877901109457 0.913060925876 -2.039112199661
H -0.233221979178 1.541469620675 -0.812328823615
C -0.986693030693 -0.208319092583 -1.876001059385
H -0.612767835062 -1.114001413283 -2.356014043553
H -1.504297737122 0.370270971933 -2.640762181994
H -1.728030797107 -0.483597531399 -1.124253557698
O -0.159699180354 -0.235989839326 2.792830758823
H 0.682419372498 -0.290549058262 2.313306910573
H -0.503691466538 0.669493878317 2.730766029727
