14
Coordinates from XML
N 0.898733065412 -0.143284999312 -0.302823623865
C 0.133783607666 0.638305115667 -1.396016803366
H 1.654979068509 0.419387526548 0.093761572113
H 1.303843157841 -0.998262220737 -0.691807968528
H 0.265543364162 -0.410860640712 0.454727819238
H 0.877901109457 0.913060925876 -2.140301086413
H -0.233221979178 1.541469620675 -0.913517710367
C -0.986693030693 -0.208319092583 -1.977189946138
H -0.612767835062 -1.114001413283 -2.457202930306
H -1.504297737122 0.370270971933 -2.741951068746
H -1.728030797107 -0.483597531399 -1.22544244445
O -0.159699180354 -0.235989839326 3.05164187207
H 0.682419372498 -0.290549058262 2.57211802382
H -0.503691466538 0.669493878317 2.989577142974
