14
Coordinates from XML
N 0.898733 -0.143285 -0.342175
C 0.133784 0.638305 -1.43537
H 1.65498 0.419388 0.0544103
H 1.30384 -0.998262 -0.731159
H 0.265543 -0.410861 0.415377
H 0.877901 0.913061 -2.17965
H -0.233222 1.54147 -0.952869
C -0.986693 -0.208319 -2.01654
H -0.612768 -1.114 -2.49655
H -1.5043 0.370271 -2.7813
H -1.72803 -0.483598 -1.26479
O -0.159699 -0.23599 3.15229
H 0.682419 -0.290549 2.67277
H -0.503691 0.669494 3.09023
