14
Coordinates from XML
N 0.898733065412 -0.143284999312 -0.443363744354
C 0.133783607666 0.638305115667 -1.536556923855
H 1.654979068509 0.419387526548 -0.046778548377
H 1.303843157841 -0.998262220737 -0.832348089017
H 0.265543364162 -0.410860640712 0.314187698749
H 0.877901109457 0.913060925876 -2.280841206902
H -0.233221979178 1.541469620675 -1.054057830857
C -0.986693030693 -0.208319092583 -2.117730066627
H -0.612767835062 -1.114001413283 -2.597743050795
H -1.504297737122 0.370270971933 -2.882491189235
H -1.728030797107 -0.483597531399 -1.365982564939
O -0.159699180354 -0.235989839326 3.411101751581
H 0.682419372498 -0.290549058262 2.931577903331
H -0.503691466538 0.669493878317 3.349037022485
