14
Coordinates from XML
N 0.898733 -0.143285 -0.477093
C 0.133784 0.638305 -1.57029
H 1.65498 0.419388 -0.0805082
H 1.30384 -0.998262 -0.866078
H 0.265543 -0.410861 0.280458
H 0.877901 0.913061 -2.31457
H -0.233222 1.54147 -1.08779
C -0.986693 -0.208319 -2.15146
H -0.612768 -1.114 -2.63147
H -1.5043 0.370271 -2.91622
H -1.72803 -0.483598 -1.39971
O -0.159699 -0.23599 3.49737
H 0.682419 -0.290549 3.01785
H -0.503691 0.669494 3.43531
