14
Coordinates from XML
N 0.898733065412 -0.143284999312 -0.510823002189
C 0.133783607666 0.638305115667 -1.60401618169
H 1.654979068509 0.419387526548 -0.114237806212
H 1.303843157841 -0.998262220737 -0.899807346852
H 0.265543364162 -0.410860640712 0.246728440914
H 0.877901109457 0.913060925876 -2.348300464737
H -0.233221979178 1.541469620675 -1.121517088692
C -0.986693030693 -0.208319092583 -2.185189324462
H -0.612767835062 -1.114001413283 -2.66520230863
H -1.504297737122 0.370270971933 -2.94995044707
H -1.728030797107 -0.483597531399 -1.433441822774
O -0.159699180354 -0.235989839326 3.583642493746
H 0.682419372498 -0.290549058262 3.104118645496
H -0.503691466538 0.669493878317 3.52157776465
