14
Coordinates from XML
N 0.898733 -0.143285 -0.544553
C 0.133784 0.638305 -1.63775
H 1.65498 0.419388 -0.147967
H 1.30384 -0.998262 -0.933537
H 0.265543 -0.410861 0.212999
H 0.877901 0.913061 -2.38203
H -0.233222 1.54147 -1.15525
C -0.986693 -0.208319 -2.21892
H -0.612768 -1.114 -2.69893
H -1.5043 0.370271 -2.98368
H -1.72803 -0.483598 -1.46717
O -0.159699 -0.23599 3.66991
H 0.682419 -0.290549 3.19039
H -0.503691 0.669494 3.60785
