14
Coordinates from XML
N 0.898733065412 -0.143284999312 -0.645741517859
C 0.133783607666 0.638305115667 -1.738934697359
H 1.654979068509 0.419387526548 -0.249156321881
H 1.303843157841 -0.998262220737 -1.034725862522
H 0.265543364162 -0.410860640712 0.111809925244
H 0.877901109457 0.913060925876 -2.483218980407
H -0.233221979178 1.541469620675 -1.256435604361
C -0.986693030693 -0.208319092583 -2.320107840132
H -0.612767835062 -1.114001413283 -2.800120824299
H -1.504297737122 0.370270971933 -3.08486896274
H -1.728030797107 -0.483597531399 -1.568360338444
O -0.159699180354 -0.235989839326 3.928723978076
H 0.682419372498 -0.290549058262 3.449200129827
H -0.503691466538 0.669493878317 3.86665924898
