14
Coordinates from XML
N 0.143238 -1.29312 -1.11681
C 0.15157 0.223071 -1.42044
H 0.474496 -1.83313 -1.91959
H -0.802929 -1.60649 -0.88665
H 0.747243 -1.50113 -0.317865
H -0.481034 0.354159 -2.29553
H 1.17763 0.466952 -1.68676
C -0.342675 1.01401 -0.220374
H -1.37118 0.763103 0.043683
H -0.324099 2.07536 -0.466785
H 0.293739 0.875913 0.655064
O 0.0445486 0.25342 2.38291
H 0.673426 -0.44858 2.15098
H -0.809065 0.0693463 1.95918
