14
Coordinates from XML
N 0.143238424126 -1.29312402187 -1.167409324766
C 0.15156995377 0.223070944731 -1.471030004746
H 0.474496407047 -1.83312997901 -1.970185707847
H -0.802928923006 -1.606493793638 -0.937244614396
H 0.747243265682 -1.501132244411 -0.368459488219
H -0.481033922268 0.354158738413 -2.346123732341
H 1.177629831248 0.466951607159 -1.73735302093
C -0.342674956422 1.014005300941 -0.270968555528
H -1.371176184442 0.763102786545 -0.006911487537
H -0.324098883519 2.075361704238 -0.5173791564
H 0.293738579751 0.875912696865 0.604469879062
O 0.044548562304 0.253420395474 2.512316372587
H 0.673426248405 -0.448580206143 2.280386431176
H -0.809064740173 0.069346285205 2.088589410697
