14
Coordinates from XML
N 0.143238 -1.29312 -1.17303
C 0.15157 0.223071 -1.47665
H 0.474496 -1.83313 -1.97581
H -0.802929 -1.60649 -0.942866
H 0.747243 -1.50113 -0.374081
H -0.481034 0.354159 -2.35175
H 1.17763 0.466952 -1.74297
C -0.342675 1.01401 -0.27659
H -1.37118 0.763103 -0.0125331
H -0.324099 2.07536 -0.523001
H 0.293739 0.875913 0.598848
O 0.0445486 0.25342 2.52669
H 0.673426 -0.44858 2.29476
H -0.809065 0.0693463 2.10297
