14
Coordinates from XML
N 0.143238424126 -1.29312402187 -1.218003768143
C 0.15156995377 0.223070944731 -1.521624448123
H 0.474496407047 -1.83312997901 -2.020780151223
H -0.802928923006 -1.606493793638 -0.987839057772
H 0.747243265682 -1.501132244411 -0.419053931595
H -0.481033922268 0.354158738413 -2.396718175717
H 1.177629831248 0.466951607159 -1.787947464307
C -0.342674956422 1.014005300941 -0.321562998904
H -1.371176184442 0.763102786545 -0.057505930913
H -0.324098883519 2.075361704238 -0.567973599776
H 0.293738579751 0.875912696865 0.553875435686
O 0.044548562304 0.253420395474 2.641721929211
H 0.673426248405 -0.448580206143 2.4097919878
H -0.809064740173 0.069346285205 2.21799496732
