14
Coordinates from XML
N 0.143238424126 -1.29312402187 -1.24611179224
C 0.15156995377 0.223070944731 -1.54973247222
H 0.474496407047 -1.83312997901 -2.048888175321
H -0.802928923006 -1.606493793638 -1.01594708187
H 0.747243265682 -1.501132244411 -0.447161955693
H -0.481033922268 0.354158738413 -2.424826199815
H 1.177629831248 0.466951607159 -1.816055488404
C -0.342674956422 1.014005300941 -0.349671023002
H -1.371176184442 0.763102786545 -0.085613955011
H -0.324098883519 2.075361704238 -0.596081623874
H 0.293738579751 0.875912696865 0.525767411588
O 0.044548562304 0.253420395474 2.713613905113
H 0.673426248405 -0.448580206143 2.481683963702
H -0.809064740173 0.069346285205 2.289886943223
