14
Coordinates from XML
N 0.143238 -1.29312 -1.27984
C 0.15157 0.223071 -1.58346
H 0.474496 -1.83313 -2.08262
H -0.802929 -1.60649 -1.04968
H 0.747243 -1.50113 -0.480892
H -0.481034 0.354159 -2.45856
H 1.17763 0.466952 -1.84979
C -0.342675 1.01401 -0.383401
H -1.37118 0.763103 -0.119344
H -0.324099 2.07536 -0.629811
H 0.293739 0.875913 0.492038
O 0.0445486 0.25342 2.79988
H 0.673426 -0.44858 2.56795
H -0.809065 0.0693463 2.37616
