14
Coordinates from XML
N 0.143238424126 -1.29312402187 -1.279841421158
C 0.15156995377 0.223070944731 -1.583462101138
H 0.474496407047 -1.83312997901 -2.082617804238
H -0.802928923006 -1.606493793638 -1.049676710787
H 0.747243265682 -1.501132244411 -0.48089158461
H -0.481033922268 0.354158738413 -2.458555828732
H 1.177629831248 0.466951607159 -1.849785117322
C -0.342674956422 1.014005300941 -0.38340065192
H -1.371176184442 0.763102786545 -0.119343583928
H -0.324098883519 2.075361704238 -0.629811252792
H 0.293738579751 0.875912696865 0.492037782671
O 0.044548562304 0.253420395474 2.799884276195
H 0.673426248405 -0.448580206143 2.567954334785
H -0.809064740173 0.069346285205 2.376157314305
