14
Coordinates from XML
N 0.143238424126 -1.29312402187 -1.307949445256
C 0.15156995377 0.223070944731 -1.611570125236
H 0.474496407047 -1.83312997901 -2.110725828336
H -0.802928923006 -1.606493793638 -1.077784734885
H 0.747243265682 -1.501132244411 -0.508999608708
H -0.481033922268 0.354158738413 -2.48666385283
H 1.177629831248 0.466951607159 -1.87789314142
C -0.342674956422 1.014005300941 -0.411508676017
H -1.371176184442 0.763102786545 -0.147451608026
H -0.324098883519 2.075361704238 -0.65791927689
H 0.293738579751 0.875912696865 0.463929758573
O 0.044548562304 0.253420395474 2.871776252098
H 0.673426248405 -0.448580206143 2.639846310687
H -0.809064740173 0.069346285205 2.448049290207
