14
Coordinates from XML
N -0.289912 -0.467274 0.037415
C -0.168689 -0.389822 -1.5022
H -0.593951 -1.39611 0.338438
H -0.967811 0.21908 0.377681
H 0.611106 -0.265357 0.477649
H -1.15109 -0.648701 -1.89082
H 0.538441 -1.16689 -1.78386
C 0.283447 0.994714 -1.93652
H -0.428272 1.77007 -1.64883
H 0.358856 1.01523 -3.02346
H 1.26773 1.25009 -1.54098
O 0.213442 -0.116796 2.77843
H -0.508547 0.370857 3.20623
H 0.147793 -0.00450806 1.81658
