14
Coordinates from XML
N -0.28991229296 -0.467273724127 0.026171777751
C -0.168688999727 -0.389821994629 -1.513441242205
H -0.593950515913 -1.396108625485 0.327194519798
H -0.967810827458 0.21908027557 0.366437586441
H 0.611106001855 -0.265356969461 0.466405541994
H -1.151093385845 -0.648700854537 -1.902059388637
H 0.538440621626 -1.166893846012 -1.795099963033
C 0.283447301921 0.994714499176 -1.947761551468
H -0.428271500759 1.770073946482 -1.660068909382
H 0.358855664033 1.015226989035 -3.03469921583
H 1.267734550384 1.250085675817 -1.552225985764
O 0.213441952522 -0.11679629041 2.807187769716
H -0.508546728991 0.370856729116 3.23498487441
H 0.147792944784 -0.00450806457 1.845332765783
