14
Coordinates from XML
N -0.289912 -0.467274 0.0261718
C -0.168689 -0.389822 -1.51344
H -0.593951 -1.39611 0.327195
H -0.967811 0.21908 0.366438
H 0.611106 -0.265357 0.466406
H -1.15109 -0.648701 -1.90206
H 0.538441 -1.16689 -1.7951
C 0.283447 0.994714 -1.94776
H -0.428272 1.77007 -1.66007
H 0.358856 1.01523 -3.0347
H 1.26773 1.25009 -1.55223
O 0.213442 -0.116796 2.80719
H -0.508547 0.370857 3.23498
H 0.147793 -0.00450806 1.84533
