14
Coordinates from XML
N -0.289912 -0.467274 -0.0244227
C -0.168689 -0.389822 -1.56404
H -0.593951 -1.39611 0.2766
H -0.967811 0.21908 0.315843
H 0.611106 -0.265357 0.415811
H -1.15109 -0.648701 -1.95265
H 0.538441 -1.16689 -1.84569
C 0.283447 0.994714 -1.99836
H -0.428272 1.77007 -1.71066
H 0.358856 1.01523 -3.08529
H 1.26773 1.25009 -1.60282
O 0.213442 -0.116796 2.93659
H -0.508547 0.370857 3.36439
H 0.147793 -0.00450806 1.97474
