14
Coordinates from XML
N -0.28991229296 -0.467273724127 -0.035665875264
C -0.168688999727 -0.389821994629 -1.575278895221
H -0.593950515913 -1.396108625485 0.265356866783
H -0.967810827458 0.21908027557 0.304599933426
H 0.611106001855 -0.265356969461 0.404567888979
H -1.151093385845 -0.648700854537 -1.963897041653
H 0.538440621626 -1.166893846012 -1.856937616048
C 0.283447301921 0.994714499176 -2.009599204483
H -0.428271500759 1.770073946482 -1.721906562397
H 0.358855664033 1.015226989035 -3.096536868846
H 1.267734550384 1.250085675817 -1.614063638779
O 0.213441952522 -0.11679629041 2.965350116701
H -0.508546728991 0.370856729116 3.393147221394
H 0.147792944784 -0.00450806457 2.003495112768
