14
Coordinates from XML
N -0.463407197295 -0.379958020112 -2.085881136822
C 0.463350454774 -0.303894644387 -0.850390657032
H -0.201262216222 -1.156157289209 -2.697912925031
H -0.41127595534 0.487270017075 -2.625887545734
H -1.435406523662 -0.51288037091 -1.796124223551
H 1.47250928404 -0.197985983075 -1.242235675475
H 0.37658725593 -1.268033306439 -0.354292495085
C 0.063688698387 0.853066957752 0.050560507371
H 0.15004432156 1.816998642995 -0.453296015319
H 0.734326662429 0.878190337427 0.909137356876
H -0.950445156735 0.743016579759 0.437737013996
O 0.032493149443 -0.155457613909 2.545188608679
H -0.248896101221 0.768286620105 2.447208170812
H 0.161505577559 -0.351110936866 3.487079821653
