14
Coordinates from XML
N -0.463407 -0.379958 -2.09712
C 0.46335 -0.303895 -0.861634
H -0.201262 -1.15616 -2.70916
H -0.411276 0.48727 -2.63713
H -1.43541 -0.51288 -1.80737
H 1.47251 -0.197986 -1.25348
H 0.376587 -1.26803 -0.365536
C 0.0636887 0.853067 0.0393173
H 0.150044 1.817 -0.464539
H 0.734327 0.87819 0.897894
H -0.950445 0.743017 0.426494
O 0.0324931 -0.155458 2.57395
H -0.248896 0.768287 2.47596
H 0.161506 -0.351111 3.51584
