14
Coordinates from XML
N -0.463407 -0.379958 -2.10837
C 0.46335 -0.303895 -0.872877
H -0.201262 -1.15616 -2.7204
H -0.411276 0.48727 -2.64837
H -1.43541 -0.51288 -1.81861
H 1.47251 -0.197986 -1.26472
H 0.376587 -1.26803 -0.376779
C 0.0636887 0.853067 0.0280741
H 0.150044 1.817 -0.475782
H 0.734327 0.87819 0.886651
H -0.950445 0.743017 0.415251
O 0.0324931 -0.155458 2.6027
H -0.248896 0.768287 2.50472
H 0.161506 -0.351111 3.54459
