14
Coordinates from XML
N -0.463407197295 -0.379958020112 -2.119610765739
C 0.463350454774 -0.303894644387 -0.88412028595
H -0.201262216222 -1.156157289209 -2.731642553948
H -0.41127595534 0.487270017075 -2.659617174651
H -1.435406523662 -0.51288037091 -1.829853852469
H 1.47250928404 -0.197985983075 -1.275965304392
H 0.37658725593 -1.268033306439 -0.388022124002
C 0.063688698387 0.853066957752 0.016830878453
H 0.15004432156 1.816998642995 -0.487025644237
H 0.734326662429 0.878190337427 0.875407727959
H -0.950445156735 0.743016579759 0.404007385078
O 0.032493149443 -0.155457613909 2.631458979761
H -0.248896101221 0.768286620105 2.533478541895
H 0.161505577559 -0.351110936866 3.573350192735
