14
Coordinates from XML
N -1.17806 -0.383686 -1.31919
C 0.150419 0.407201 -1.29211
H -1.82074 -0.00378728 -2.01807
H -1.6364 -0.344181 -0.40553
H -1.00447 -1.36675 -1.54249
H -0.122641 1.43933 -1.08401
H 0.553612 0.345065 -2.30046
C 1.09621 -0.166784 -0.24998
H 0.685264 -0.104264 0.758837
H 2.01993 0.411333 -0.256933
H 1.36377 -1.20307 -0.462106
O 0.0980176 0.239344 2.43537
H 0.67748 -0.537878 2.48262
H -0.746344 0.0340999 2.86782
