14
Coordinates from XML
N -1.17806 -0.383686 -1.33044
C 0.150419 0.407201 -1.30335
H -1.82074 -0.00378728 -2.02932
H -1.6364 -0.344181 -0.416773
H -1.00447 -1.36675 -1.55373
H -0.122641 1.43933 -1.09526
H 0.553612 0.345065 -2.31171
C 1.09621 -0.166784 -0.261224
H 0.685264 -0.104264 0.747593
H 2.01993 0.411333 -0.268176
H 1.36377 -1.20307 -0.473349
O 0.0980176 0.239344 2.46413
H 0.67748 -0.537878 2.51137
H -0.746344 0.0340999 2.89657
