14
Coordinates from XML
N -1.178063569051 -0.383686037609 -1.33043662822
C 0.150418950457 0.40720126447 -1.303351960673
H -1.820739009028 -0.003787276573 -2.029316744149
H -1.636395224568 -0.344181206189 -0.416773386986
H -1.004471340366 -1.366749951455 -1.553732821698
H -0.122640954954 1.439332879292 -1.095257454621
H 0.553611696769 0.345064590137 -2.311706680823
C 1.096205615184 -0.16678361432 -0.261223555568
H 0.685264244519 -0.104264399792 0.747593335953
H 2.019933948838 0.411332544515 -0.268176398545
H 1.363773142477 -1.203072412627 -0.473349352973
O 0.098017567814 0.239343819479 2.464125306124
H 0.677480084239 -0.53787834946 2.511373360444
H -0.746343788341 0.034099906304 2.896574520259
