14
Coordinates from XML
N -1.178063569051 -0.383686037609 -1.352923047499
C 0.150418950457 0.40720126447 -1.325838379951
H -1.820739009028 -0.003787276573 -2.051803163427
H -1.636395224568 -0.344181206189 -0.439259806264
H -1.004471340366 -1.366749951455 -1.576219240976
H -0.122640954954 1.439332879292 -1.117743873899
H 0.553611696769 0.345064590137 -2.334193100101
C 1.096205615184 -0.16678361432 -0.283709974846
H 0.685264244519 -0.104264399792 0.725106916674
H 2.019933948838 0.411332544515 -0.290662817823
H 1.363773142477 -1.203072412627 -0.495835772252
O 0.098017567814 0.239343819479 2.521638886845
H 0.677480084239 -0.53787834946 2.568886941165
H -0.746343788341 0.034099906304 2.954088100981
