14
Coordinates from XML
N -1.178063569051 -0.383686037609 -1.364166257138
C 0.150418950457 0.40720126447 -1.33708158959
H -1.820739009028 -0.003787276573 -2.063046373066
H -1.636395224568 -0.344181206189 -0.450503015903
H -1.004471340366 -1.366749951455 -1.587462450615
H -0.122640954954 1.439332879292 -1.128987083539
H 0.553611696769 0.345064590137 -2.34543630974
C 1.096205615184 -0.16678361432 -0.294953184485
H 0.685264244519 -0.104264399792 0.713863707035
H 2.019933948838 0.411332544515 -0.301906027462
H 1.363773142477 -1.203072412627 -0.507078981891
O 0.098017567814 0.239343819479 2.550395677206
H 0.677480084239 -0.53787834946 2.597643731526
H -0.746343788341 0.034099906304 2.982844891342
