14
Coordinates from XML
N -1.17806 -0.383686 -1.37541
C 0.150419 0.407201 -1.34832
H -1.82074 -0.00378728 -2.07429
H -1.6364 -0.344181 -0.461746
H -1.00447 -1.36675 -1.59871
H -0.122641 1.43933 -1.14023
H 0.553612 0.345065 -2.35668
C 1.09621 -0.166784 -0.306196
H 0.685264 -0.104264 0.70262
H 2.01993 0.411333 -0.313149
H 1.36377 -1.20307 -0.518322
O 0.0980176 0.239344 2.57915
H 0.67748 -0.537878 2.6264
H -0.746344 0.0340999 3.0116
