14
Coordinates from XML
N -1.178063569051 -0.383686037609 -1.397895886055
C 0.150418950457 0.40720126447 -1.370811218507
H -1.820739009028 -0.003787276573 -2.096776001984
H -1.636395224568 -0.344181206189 -0.484232644821
H -1.004471340366 -1.366749951455 -1.621192079533
H -0.122640954954 1.439332879292 -1.162716712456
H 0.553611696769 0.345064590137 -2.379165938657
C 1.096205615184 -0.16678361432 -0.328682813402
H 0.685264244519 -0.104264399792 0.680134078118
H 2.019933948838 0.411332544515 -0.33563565638
H 1.363773142477 -1.203072412627 -0.540808610808
O 0.098017567814 0.239343819479 2.636666048289
H 0.677480084239 -0.53787834946 2.683914102609
H -0.746343788341 0.034099906304 3.069115262424
