14
Coordinates from XML
N -1.17806 -0.383686 -1.3979
C 0.150419 0.407201 -1.37081
H -1.82074 -0.00378728 -2.09678
H -1.6364 -0.344181 -0.484233
H -1.00447 -1.36675 -1.62119
H -0.122641 1.43933 -1.16272
H 0.553612 0.345065 -2.37917
C 1.09621 -0.166784 -0.328683
H 0.685264 -0.104264 0.680134
H 2.01993 0.411333 -0.335636
H 1.36377 -1.20307 -0.540809
O 0.0980176 0.239344 2.63667
H 0.67748 -0.537878 2.68391
H -0.746344 0.0340999 3.06912
