14
Coordinates from XML
N -1.17806 -0.383686 -1.40914
C 0.150419 0.407201 -1.38205
H -1.82074 -0.00378728 -2.10802
H -1.6364 -0.344181 -0.495476
H -1.00447 -1.36675 -1.63244
H -0.122641 1.43933 -1.17396
H 0.553612 0.345065 -2.39041
C 1.09621 -0.166784 -0.339926
H 0.685264 -0.104264 0.668891
H 2.01993 0.411333 -0.346879
H 1.36377 -1.20307 -0.552052
O 0.0980176 0.239344 2.66542
H 0.67748 -0.537878 2.71267
H -0.746344 0.0340999 3.09787
