14
Coordinates from XML
N 0.997913805274 0.566496454454 -0.222525907413
C 0.247913805274 0.436496454454 -1.486525907413
H 1.345913805274 1.518496454454 -0.073525907413
H 1.792913805274 -0.078503545546 -0.162525907413
H 0.387913805274 0.356496454454 0.603474092587
H 0.930913805274 0.712496454454 -2.294525907413
H -0.581086194726 1.148496454454 -1.444525907413
C -0.244086194726 -0.985503545546 -1.635525907413
H 0.590913805274 -1.694503545546 -1.649525907413
H -0.798086194726 -1.097503545546 -2.573525907413
H -0.913086194726 -1.262503545546 -0.813525907413
O -0.894997180167 -0.040409014854 2.664569817066
H -0.891997180167 -0.809409014854 3.273569817066
H -1.570997180167 0.513590985146 3.111569817066
