14
Coordinates from XML
N 1.01885 0.572975 -0.256169
C 0.268855 0.442975 -1.52017
H 1.36685 1.52498 -0.107169
H 1.81385 -0.0720249 -0.196169
H 0.408855 0.362975 0.569831
H 0.951855 0.718975 -2.32817
H -0.560145 1.15498 -1.47817
C -0.223145 -0.979025 -1.66917
H 0.611855 -1.68802 -1.68317
H -0.777145 -1.09102 -2.60717
H -0.892145 -1.25602 -0.847169
O -0.948558 -0.0569796 2.75062
H -0.945558 -0.82598 3.35962
H -1.62456 0.49702 3.19762
