14
Coordinates from XML
N 1.027231171651 0.575566626269 -0.26962652404
C 0.277231171651 0.445566626269 -1.53362652404
H 1.375231171651 1.527566626269 -0.12062652404
H 1.822231171651 -0.069433373731 -0.20962652404
H 0.417231171651 0.365566626269 0.55637347596
H 0.960231171651 0.721566626269 -2.34162652404
H -0.551768828349 1.157566626269 -1.49162652404
C -0.214768828349 -0.976433373731 -1.68262652404
H 0.620231171651 -1.685433373731 -1.69662652404
H -0.768768828349 -1.088433373731 -2.62062652404
H -0.883768828349 -1.253433373731 -0.86062652404
O -0.969982294373 -0.06360781998 2.78503920274
H -0.966982294373 -0.83260781998 3.39403920274
H -1.645982294373 0.49039218002 3.23203920274
