14
Coordinates from XML
N 1.03561 0.578158 -0.283084
C 0.285608 0.448158 -1.54708
H 1.38361 1.53016 -0.134084
H 1.83061 -0.0668419 -0.223084
H 0.425608 0.368158 0.542916
H 0.968608 0.724158 -2.35508
H -0.543392 1.16016 -1.50508
C -0.206392 -0.973842 -1.69608
H 0.628608 -1.68284 -1.71008
H -0.760392 -1.08584 -2.63408
H -0.875392 -1.25084 -0.874084
O -0.991407 -0.0702361 2.81946
H -0.988407 -0.839236 3.42846
H -1.66741 0.483764 3.26646
