14
Coordinates from XML
N 1.04398 0.58075 -0.296541
C 0.293984 0.45075 -1.56054
H 1.39198 1.53275 -0.147541
H 1.83898 -0.0642504 -0.236541
H 0.433984 0.37075 0.529459
H 0.976984 0.72675 -2.36854
H -0.535016 1.16275 -1.51854
C -0.198016 -0.97125 -1.70954
H 0.636984 -1.68025 -1.72354
H -0.752016 -1.08325 -2.64754
H -0.867016 -1.24825 -0.887541
O -1.01283 -0.0768643 2.85388
H -1.00983 -0.845864 3.46288
H -1.68883 0.477136 3.30088
