420
Coordinates from XML
N -0.6600365099 -0.053466353389 -0.163474879264
C -0.36114343652 -0.144168055083 -1.636035513838
H -1.647722644468 -0.294547967944 0.024633303983
H -0.489517535935 0.904389684222 0.186030185264
H -0.06143576521 -0.704368538765 0.372007620569
H -1.047925996871 0.541909382779 -2.141206527411
H -0.59261953484 -1.168853108801 -1.942628541634
C 1.088474223221 0.196404935993 -2.025889016857
H 1.337267223171 1.220304382101 -1.736351643214
H 1.220014076233 0.105778611467 -3.106974503751
H 1.790948490754 -0.483955625691 -1.538292355405
O -0.022889934648 -0.061047669468 3.125563965239
H 0.693148368903 0.342732791595 3.624935627542
H -0.328301423614 0.626385854097 2.526163812514
N -1.195034240368 0.236853675349 -1.501919496733
C 0.280143608208 0.4860038668 -1.335266600957
H -1.67482672546 1.090570835669 -1.833574611761
H -1.622140749184 -0.044980177683 -0.603660954435
H -1.363365704216 -0.515888442105 -2.190237618672
H 0.383388090687 1.310278854146 -0.622889165202
H 0.65785640305 0.809145787368 -2.310188275701
C 1.091234565612 -0.726203243526 -0.843278332811
H 0.735451864502 -1.059390945038 0.134732172476
H 2.147384207685 -0.461317790694 -0.750298098208
H 1.008697069621 -1.558802327631 -1.546184743084
O -0.053597489797 0.01903325802 3.195426990108
H 0.818592822503 -0.151344318333 3.563363276177
H 0.035053120123 -0.151258191424 2.252949689794
N -1.233126329148 0.154618625652 -1.291836260775
C 0.112592516241 0.007451727823 -0.633519176198
H -1.975455346692 0.278013188108 -0.582787358675
H -1.459280457512 -0.683475936593 -1.853236754504
H -1.245757814314 0.976669428749 -1.918582570545
H 0.044967666762 -0.856048583542 0.035333857663
H 0.271444595393 0.909524866348 -0.034695330815
C 1.292204550658 -0.182374972365 -1.604007892081
H 1.157465855636 -1.084357560807 -2.205981992446
H 2.227404368408 -0.280106552748 -1.047131305505
H 1.382961605815 0.674565489063 -2.275965701178
O -0.045871706243 -0.016305572806 3.091850980153
H 0.847777119883 -0.365893853747 3.026266077992
H -0.116699196264 0.624346551016 2.377939295909
N -0.03805083182 1.215456147119 -1.270210716294
C 0.0108105443 -0.030158427075 -0.426376852918
H -0.050578777579 2.060396360756 -0.67443557427
H -0.886687472244 1.224284841184 -1.860512847488
H 0.787524970946 1.269949317502 -1.890043840908
H -0.8693367531 -0.006869106108 0.223522086387
H 0.911115773759 0.04221183888 0.191500939621
C 0.032923392741 -1.349811154111 -1.218459410142
H -0.863433417575 -1.446174856596 -1.836001658692
H 0.068836814308 -2.200714764684 -0.533671147053
H 0.910298136768 -1.397184369455 -1.868136585139
O -0.05429572088 -0.036729810975 2.544066980464
H 0.004554226649 0.922389032229 2.585891593882
H 0.857378079021 -0.342271590948 2.519234073586
N 0.268656142026 -0.748812777439 -0.321716171442
C -0.395652112153 -0.273986417381 -1.586324079738
H -0.089460826228 -1.679258597669 -0.047760433107
H 0.087516856212 -0.091710384151 0.455537778866
H 1.291672417882 -0.822194813972 -0.451295452764
H -1.471807040081 -0.250835171769 -1.389030187736
H -0.190762074947 -1.02774425702 -2.352763327126
C 0.067911284839 1.107083551659 -2.083437540714
H -0.136437625067 1.876880108575 -1.335269974402
H -0.460462633779 1.374756493803 -3.001824110612
H 1.139944856693 1.102953501048 -2.295187530558
O -0.02127909525 -0.058180596561 3.257185332168
H 0.179531164054 0.200761456912 4.161478328216
H 0.157530933178 0.724482112228 2.727480104703
N -0.585135021843 0.797037165872 -0.37604813811
C -0.136844571362 -0.520611989024 -0.949489562414
H -1.203864035874 0.64946455804 0.439074960884
H -1.105897880631 1.344702912224 -1.081446589045
H 0.227244056806 1.35689617499 -0.067282633912
H -1.042182374534 -1.070864372341 -1.223635628779
H 0.375461198216 -1.057113088656 -0.1449590803
C 0.792306621861 -0.413523295519 -2.172018558943
H 0.295572076057 0.111719204001 -2.991454359359
H 1.069861475164 -1.410236353052 -2.52385385841
H 1.707881428654 0.125670662226 -1.916864206053
O -0.063784670485 -0.006629472749 2.891455427781
H 0.452586723448 0.804833024315 2.894737102236
H 0.561242944078 -0.701582937143 3.118395361156
N 0.064797487578 -0.533493987125 -0.038637778386
C -0.019239950535 -0.428860858363 -1.537967064387
H 0.085231920832 -1.523702673814 0.258175504073
H -0.751025748188 -0.080173093527 0.405942152347
H 0.921457117349 -0.073637995056 0.312652357228
H -0.926017090806 -0.960736289273 -1.841996722112
H 0.852664317147 -0.953621537417 -1.940420919901
C -0.05538521988 1.008757513738 -2.086887833901
H -0.925134539782 1.548082525817 -1.703789184497
H -0.115564140264 0.994979333232 -3.177965444744
H 0.846851014348 1.555296606789 -1.801623233727
O 0.03205209326 -0.057011379804 2.97707907961
H 0.386056741821 0.816050205674 3.170897929982
H -0.894979441323 0.090097080168 2.767095259059
N 0.188158320063 0.370171320446 -2.530430095427
C 0.250815006323 -0.509419230597 -1.31043284433
H 0.676796497138 -0.07334183666 -3.326393502424
H 0.635251767001 1.283841894713 -2.345951828894
H -0.792854223196 0.540538702911 -2.808508068416
H 1.310636192295 -0.674073896108 -1.093089374703
H -0.208260548935 -1.463954165783 -1.585519412839
C -0.449508026874 0.059975744256 -0.06355510883
H 0.000738013223 1.010222902907 0.233781004267
H -0.357972771719 -0.637653742973 0.772624351102
H -1.512513075769 0.223539921172 -0.256889329167
O -0.022136286278 0.000389911691 3.403726469516
H -0.277759731356 -0.597099644475 4.112799423871
H 0.628722959994 0.589948292199 3.796058889175
N 0.667439257115 1.046747986364 -0.95249919627
C 0.213485224081 -0.270976657727 -1.521292822066
H 1.45363158505 1.431206013101 -1.503064889965
H 0.983201179237 0.933697906638 0.025372363503
H -0.103137982461 1.735784412739 -0.965823425124
H 1.081177455528 -0.937663511509 -1.506831861447
H -0.074033089568 -0.084003693375 -2.560491676
C -0.957812451093 -0.931746343177 -0.772418831049
H -0.687720698407 -1.135680155938 0.266600595354
H -1.223968609315 -1.878876135872 -1.248200029532
H -1.838610123587 -0.285065142529 -0.782905944965
O 0.018443568036 0.055970585339 2.760066131058
H -0.87640179196 -0.222509213377 2.543681396381
H 0.582091222374 -0.668450725034 2.472600208143
N 0.896152073761 -0.683227655126 -1.798364024342
C -0.427469958564 0.016216156012 -1.640878275453
H 0.951443834932 -1.159130413354 -2.714599976354
H 1.02518494581 -1.392948398094 -1.057846850786
H 1.676302883003 -0.007598017261 -1.738136776546
H -1.203739471657 -0.747797073396 -1.746990090222
H -0.510552474063 0.725193246015 -2.470341179728
C -0.61362414823 0.759410835811 -0.305821961626
H -0.543371862318 0.066694676249 0.536382800831
H -1.595740024906 1.237604849728 -0.273563886128
H 0.147424542894 1.534077285179 -0.184134342445
O 0.031013407286 -0.009303062994 3.292030446136
H -0.049223942588 0.811798843433 2.79758611464
H -0.445255343546 -0.662501998766 2.770857924521
N 0.354385034632 0.484135136295 -2.357811626108
C 0.464720669009 0.003334483 -0.935610701458
H 1.264131253566 0.842097797125 -2.694343176616
H -0.340119395052 1.2461461922 -2.433451874832
H 0.059484769253 -0.285249809242 -2.982166215393
H 0.809761404615 0.853966119339 -0.339839773222
H 1.234460033438 -0.774437403456 -0.924115850966
C -0.839459242799 -0.552067539193 -0.335602012454
H -1.619700639024 0.212970229099 -0.329238051039
H -0.672615846177 -0.878136405247 0.694011540873
H -1.196755614513 -1.409260547235 -0.911510463881
O -0.051718142843 0.007316653692 3.195766658932
H 0.608297776632 -0.691905330015 3.171493761705
H 0.211858913439 0.574615886289 3.926396719973
N 0.346921560481 1.168708607027 -1.526153813587
C 0.410984112848 -0.213489372426 -0.93334404184
H 1.175952106209 1.722659420754 -1.252519414947
H -0.497106774251 1.668149321808 -1.199207576434
H 0.315917466265 1.122855748766 -2.558468821534
H 0.47405657342 -0.089678811028 0.152134239151
H 1.338460404054 -0.668921243962 -1.29380134547
C -0.78038942606 -1.124160206842 -1.280726824421
H -1.716923395778 -0.691293209461 -0.920684869306
H -0.65540068479 -2.104170679558 -0.813587678639
H -0.855911468301 -1.268190287974 -2.361311319759
O 0.03742357166 -0.052318696131 3.247912028525
H -0.691723074885 0.287155210711 3.77538165268
H 0.096935710793 0.540487836124 2.49282243741
N -0.118882913658 1.240204275223 -1.065153474276
C 0.279296188245 -0.147498798656 -1.491454156956
H 0.185542515578 1.938809397787 -1.763941693024
H 0.313150183406 1.482146888482 -0.157668006442
H -1.145239982048 1.311327404185 -0.963809097065
H 1.367153778548 -0.142163117242 -1.610229923103
H -0.184098708 -0.323192616364 -2.467136882361
C -0.128178593467 -1.267374341566 -0.5171799932
H 0.332223168955 -1.115537781546 0.462144161255
H 0.196575646821 -2.237935952761 -0.900333403584
H -1.213293468104 -1.295743765263 -0.391354799615
O -0.054801953373 -0.035858480157 2.60523059604
H 0.85248678824 -0.354139682588 2.630642906484
H 0.017716376441 0.92034881321 2.530864784319
N -0.204842626714 -1.010598331612 -1.909527398789
C -0.26275505492 -0.0988952005 -0.713098444827
H -0.722547630156 -1.88676368474 -1.726921984609
H 0.773733880812 -1.255252490289 -2.135914370503
H -0.623951789273 -0.554760003081 -2.737354036559
H 0.164740165721 -0.653133849393 0.128113564896
H -1.321508615644 0.091499308122 -0.51222346669
C 0.479728098429 1.23903309499 -0.880531173469
H 1.542211162512 1.071152665182 -1.073004088772
H 0.387985774785 1.838203832989 0.02877596187
H 0.061652823918 1.812946078682 -1.711162286956
O 0.028554176201 0.042837633275 3.132062334608
H -0.913005235949 -0.118136739607 3.019480388156
H 0.460208313066 -0.559438830238 2.518825563347
N 0.399627075998 0.207645919166 -0.197807318284
C -0.568269100189 0.030131056941 -1.336957947618
H -0.104787840737 0.401331588758 0.683714313368
H 1.041162776391 0.996957419501 -0.382572033425
H 0.967332958682 -0.645876862697 -0.06384125651
H -1.154371813435 0.952071321216 -1.4008331974
H -1.232221996372 -0.794979194487 -1.061422917654
C 0.08197137186 -0.263792904177 -2.700835914699
H 0.742889087711 0.553663443102 -2.999253099973
H -0.686938149576 -0.378873998162 -3.468817804625
H 0.665575393553 -1.186795985706 -2.661052098249
O -0.045327372253 -0.024687735393 3.439052908785
H -0.133558564406 0.734113837288 4.023481689756
H 0.852001608937 -0.342732840379 3.576055028151
N 0.574882325687 -0.462452996703 -0.130500108688
C 0.328495973735 -0.138473254452 -1.579751495675
H 1.454755440557 -0.993916388633 -0.019149766669
H -0.197292079232 -1.032756285985 0.253191885003
H 0.647423316702 0.402847951797 0.430507990404
H 0.295444154509 -1.091856786792 -2.115976920668
H 1.193715963354 0.434803576436 -1.926605892837
C -0.961211866732 0.654738504681 -1.856944329118
H -1.839252444102 0.094790374657 -1.525881254351
H -1.063105635075 0.847683529737 -2.927762507372
H -0.944453367025 1.615714420116 -1.336987083431
O -0.044194295385 -0.005596462756 2.856255834135
H -0.197874482297 -0.076266196533 3.803097826697
H 0.898058018734 0.166177759187 2.768075546009
N 0.369327850449 0.40017469385 -2.476397627504
C 0.438146458979 -0.296398290212 -1.143712830752
H 1.252691566463 0.27694963629 -2.999382392406
H 0.206968642361 1.413467862989 -2.351517123319
H -0.401119725589 0.017528305195 -3.049747684562
H 1.289363951702 0.132454027563 -0.606046801955
H 0.642439740742 -1.351663402716 -1.349235884098
C -0.831353807551 -0.17461773186 -0.281793087163
H -1.048185447071 0.872560338092 -0.057066468327
H -0.698305744243 -0.706243099453 0.663687941194
H -1.692810960813 -0.605820514629 -0.797609748318
O -0.020877837687 0.039904856251 3.512840002112
H 0.849488985758 0.021046808472 3.103905365919
H -0.518902555773 -0.655459271298 3.072883549388
N -1.217155510705 0.23704747474 -1.276641285046
C 0.268667943638 0.477026010244 -1.303801099477
H -1.729185439434 1.078328369804 -1.591443987681
H -1.532964707503 0.006393818493 -0.319676216991
H -1.472332022759 -0.5477669921 -1.899288227089
H 0.462570813421 1.335265963741 -0.653112119847
H 0.526321579945 0.745604215753 -2.332897926469
C 1.12713192387 -0.717973678693 -0.851714367107
H 0.891566415844 -0.996684037384 0.1782998807
H 2.188160012123 -0.46111514303 -0.901762166216
H 0.954891551561 -1.584286832477 -1.495100618459
O -0.028572329229 -0.0215481838 2.987960064323
H -0.357389191707 -0.094507243954 2.087028315248
H 0.813859684887 0.436055160986 2.910313104092
N -1.17426164207 -0.204893353009 -1.523610279242
C -0.032527144815 0.385793005963 -0.740328303449
H -2.076944691153 0.1860929088 -1.205299126635
H -1.207241099617 -1.231261677176 -1.404450227519
H -1.0712155474 0.000430872398 -2.531559424256
H -0.221579855379 0.160078235234 0.313655664078
H -0.07736633201 1.469523247247 -0.885511427529
C 1.362129714122 -0.130979068457 -1.136870790986
H 1.431057746231 -1.211662206954 -0.990334775424
H 2.13024563801 0.346423566553 -0.523400053985
H 1.574659392381 0.092684392522 -2.18516315802
O 0.0647913764 0.010364052812 2.960523461237
H -0.391263979453 -0.832476863367 3.04270784182
H -0.634384881893 0.668516599853 2.904761873534
N 0.88753429089 -0.621872704445 -1.858877681152
C -0.392236515315 0.137477838173 -1.631782706497
H 0.985907727737 -0.883106709856 -2.85442195201
H 0.903857937801 -1.48810163764 -1.294874424736
H 1.70539819381 -0.047880267612 -1.593605494787
H -1.208601165154 -0.512346315933 -1.961703327457
H -0.355479038525 1.01891495624 -2.279299056014
C -0.637038263122 0.575651069802 -0.176638933925
H -0.686475605819 -0.291738848999 0.486151078982
H -1.582387241953 1.118469370616 -0.099663001821
H 0.163638841766 1.233653169301 0.169858548697
O -0.000629944403 -0.020332684375 3.115497971931
H -0.248502472389 0.847266061699 3.448594347895
H 0.256326640388 -0.523021880777 3.894213873498
N 0.509792736905 -0.28685215261 -2.37154676434
C 0.38177693945 -0.155427281902 -0.877445646791
H 1.416699965956 -0.714060618726 -2.624610270745
H 0.451399584467 0.639585376839 -2.826543954636
H -0.244728541915 -0.882203650285 -2.752325240787
H 1.224575316207 0.455709187541 -0.540142517911
H 0.484130111345 -1.162648376098 -0.462006814097
C -0.937531140405 0.471649416499 -0.39209208468
H -1.054902154024 1.483033359619 -0.788862154192
H -0.949180162322 0.52950933406 0.699135766792
H -1.792664986955 -0.129181891032 -0.711245557284
O 0.061921987863 -0.008837835561 3.268788213508
H -0.373335624993 0.823769500175 3.062784803514
H -0.610709180212 -0.682827857477 3.133044587166
N 0.688035595072 -0.190856098875 -2.275717531353
C 0.35222194029 -0.077170780328 -0.812739907426
H 1.68366453164 -0.438368881062 -2.404128501381
H 0.512869011125 0.704528991095 -2.761846020466
H 0.11304761708 -0.921782769772 -2.727240555168
H 1.015634455326 0.685857707444 -0.394121166037
H 0.590401336076 -1.043687452367 -0.358123556871
C -1.111825726471 0.289111631029 -0.509806416245
H -1.3677473274 1.256957980833 -0.947844657327
H -1.270162922213 0.350364923917 0.569748612531
H -1.791463361693 -0.466048680075 -0.912219989604
O -0.001101297494 -0.006060654783 3.271703661967
H -0.500085693564 -0.518233126982 2.62841873194
H 0.515985338893 0.614876384618 2.749994764622
N -0.375942837949 -0.570071071578 -2.257432394778
C 0.252079501527 -0.402348188278 -0.899693220254
H -0.297289286443 -1.549868388854 -2.578118798906
H 0.090327846775 0.035636337151 -2.953441649729
H -1.378415936954 -0.318978223212 -2.23026474175
H 1.296809474882 -0.714285130964 -0.993527731288
H -0.265533549579 -1.091281115346 -0.22515035325
C 0.188943915628 1.025291737261 -0.327657193153
H 0.708939536039 1.728575059129 -0.982712188734
H 0.66422814033 1.059412964233 0.655807265392
H -0.847633084691 1.353114365802 -0.217423163358
O 0.032759390956 0.056779382534 3.106989361043
H -0.920789622648 -0.068533383471 3.094239485315
H 0.401732372652 -0.831437460216 3.09982353708
N 0.177909158021 0.571567403569 -0.098086785445
C 0.129487012385 0.385004048016 -1.591019503513
H 0.489078734286 1.528165940449 0.140914611929
H 0.836022066624 -0.098983131122 0.333153378913
H -0.755864072853 0.422227748616 0.319649057955
H 1.136390977627 0.588569415138 -1.968214194604
H -0.556577804942 1.142751859382 -1.981779338829
C -0.323626858262 -1.010656212952 -2.055978998181
H 0.354585211083 -1.782301466078 -1.683565363061
H -0.331482930368 -1.060923100186 -3.147616857446
H -1.332036154576 -1.230315819208 -1.696853054834
O 0.023661518086 -0.03528912805 2.998215259406
H -0.362208031693 -0.364136227764 3.815580444353
H -0.013775729761 0.922984288121 3.071917921055
N -0.942917201954 0.799283608244 -1.017529626741
C 0.154282327983 -0.166664248506 -0.658229445771
H -1.414960537567 1.149282515885 -0.166821223201
H -1.651886378285 0.341789864869 -1.614841003817
H -0.561713685376 1.610888689377 -1.532038212994
H -0.311874011836 -0.978585716258 -0.091614862522
H 0.846975726185 0.371535887942 -0.003953970673
C 0.923858977452 -0.749393883489 -1.857206104678
H 0.250807766636 -1.299619867932 -2.51928869542
H 1.699046280926 -1.437103586756 -1.510216620449
H 1.405164303392 0.045528217217 -2.432145346452
O -0.063758171865 -0.014382900034 3.018179759282
H 0.567538923846 -0.092058410675 2.296686819612
H 0.446768124562 0.318430292847 3.762303303663
N -0.393958321241 -0.531036040496 -2.428697346964
C -0.200832685127 -0.325919079768 -0.94997214883
H -0.962948749507 -1.375193032186 -2.609467366115
H 0.516739126716 -0.647965293883 -2.903751456921
H -0.876856310916 0.279933136167 -2.850451469849
H 0.282790218125 -1.229240903068 -0.565669065443
H -1.199240103036 -0.242372691423 -0.509787463772
C 0.635850868896 0.909030595212 -0.570199840475
H 1.641227536942 0.840879403774 -0.992897242589
H 0.726639913012 0.98410708683 0.516254283488
H 0.164835317262 1.824113316917 -0.937458682785
O -0.006508453687 0.034472225575 3.56379019903
H -0.427382224588 -0.801238602039 3.341137438937
H 0.531597076882 0.255270176872 2.7977534684
N 0.487404910622 -1.04667384019 -1.656722512568
C -0.243661102551 -0.149955165241 -0.693687314415
H 0.501728442055 -2.02075204142 -1.310318949891
H 1.464944584516 -0.733081583412 -1.778356314826
H 0.028205562435 -1.040343264976 -2.58291574108
H 0.273319148153 -0.229536771941 0.267545475889
H -1.254198887419 -0.55659090304 -0.588707839277
C -0.323184912235 1.328028005058 -1.116308643154
H 0.676963089345 1.756383972668 -1.217871742999
H -0.867801269735 1.906563521274 -0.366007788016
H -0.844668734144 1.430548436365 -2.071115052512
O 0.054994083328 -0.035265617702 3.035147336793
H -0.849956242979 -0.360982425599 3.025398594876
H -0.024167865156 0.923223475791 3.022753242743
N 1.010098379892 -0.474770730284 -1.696893268922
C -0.2708815985 0.30054170519 -1.542039748271
H 1.367943248254 -0.400200978259 -2.664061990588
H 0.859971224233 -1.475340208896 -1.484664017868
H 1.736031685468 -0.11360361592 -1.055553136497
H -0.979260551837 -0.110421127424 -2.267904127877
H -0.046946427167 1.337288591401 -1.811425830078
C -0.890281430287 0.255314073087 -0.133613184628
H -1.130298879478 -0.771955329796 0.151358956613
H -1.81243879189 0.841157389718 -0.107630451924
H -0.20132871753 0.670148432522 0.60622984502
O 0.04973089742 0.042417352808 2.916386750398
H 0.095870043537 -0.908269940647 3.054901801056
H -0.887699702062 0.236153915602 2.822516705171
N 0.006063866693 0.373267642754 0.037172149301
C 0.487805045178 0.189614317998 -1.377110560682
H 0.693826430306 0.911438071212 0.590691959177
H -0.133670474198 -0.541675207807 0.497685551476
H -0.892431394964 0.884305022029 0.054056339031
H 1.45155916934 -0.325503355755 -1.3187833865
H 0.644208070842 1.190968865113 -1.789890275102
C -0.466195824945 -0.601822135481 -2.289731925437
H -0.628600911407 -1.609566773632 -1.899635455996
H -0.043285539244 -0.688390895292 -3.293681343323
H -1.433092025682 -0.098859698508 -2.368799103806
O 0.054258221595 0.034595896202 2.959365295724
H -0.024468641546 -0.920788778998 2.880855593053
H -0.836712805314 0.370787266142 2.824207750668
N -0.369825452937 -0.624984936371 -0.268247441647
C 0.438971821222 -0.294321259154 -1.494015442691
H -0.024734067367 -1.493441419084 0.174159844843
H -1.365141667222 -0.760756815614 -0.512440663887
H -0.308618396146 0.137630176706 0.427029409402
H 0.356272999957 -1.152027246549 -2.168605416711
H 1.479316594656 -0.196609626567 -1.168907587748
C 0.00596207575 0.985790167224 -2.231025871303
H -1.028853218078 0.905013664949 -2.572687088943
H 0.64176415716 1.152265848573 -3.104125667657
H 0.089763441805 1.856897172198 -1.576609328395
O -0.00539264024 -0.061925945544 3.25783411195
H -0.203545700327 0.287072490957 4.131937667656
H 0.290093663824 0.697323238213 2.746610001529
