9
Coordinates from XML
N 0.224060115085 0.054813421284 -3.336638947847
C -0.256525307912 -0.062760865903 -1.946460672159
H 1.135769301347 -0.40535725778 -3.458158682114
H 0.335121406128 1.039348817327 -3.61274663258
H -0.432653720535 -0.379903857141 -3.998202947733
H 0.479651998532 0.414748962481 -1.297142670504
H -0.35337123974 -1.125282406056 -1.715311689469
H -1.222230412201 0.442389659341 -1.883134702799
K -2.7266607e-05 -6.67115e-06 2.211554278212
