9
Coordinates from XML
N -0.040086170886 -0.377100650466 -2.65225403598
C 0.045897900455 0.431750732466 -3.883411166408
H 0.36803836923 -1.311262040755 -2.788322388835
H -1.016567490921 -0.506174991939 -2.356105330098
H 0.462698819999 0.069968821708 -1.874272519496
H -0.503907278014 -0.093131117884 -4.666864955028
H 1.101235461272 0.53197853126 -4.14413713573
H -0.401213636051 1.405633076925 -3.675041223582
K 4.878693e-06 4.5892002e-05 2.6537006272
