9
Coordinates from XML
N -0.573263043242 0.072948767016 -3.138302977153
C 0.65636331071 -0.083511121643 -3.938878415764
H -0.727261736273 1.055434443482 -2.876112134287
H -0.527100110879 -0.475592816996 -2.269481289874
H -1.402284177668 -0.241910865685 -3.659365804814
H 1.495292643013 0.265764133002 -3.334071916216
H 0.545725014863 0.519411970332 -4.842207770239
H 0.762843100251 -1.141986796667 -4.183959789601
K 6.9767404e-05 -8.87633e-06 2.888412244171
