9
Coordinates from XML
N -0.0309610563 -0.118498501027 -3.639812271431
C 0.035457777563 0.135664875513 -2.187789125426
H 0.263380675926 -1.077577986928 -3.86623493901
H 0.580164737561 0.523935263398 -4.161045551646
H -0.987064917109 0.004618558878 -3.998457913961
H 1.069569638073 -0.010379693712 -1.870188474052
H -0.630939106844 -0.57395064746 -1.693702076407
H -0.287262672087 1.163918260289 -2.013662539075
K 3.769218e-06 1.4419991e-05 2.437218542204
