9
Coordinates from XML
N -0.053346605267 -0.233527283344 -3.32243768836
C 0.061066037949 0.267375236671 -1.939184959277
H -1.022696311021 -0.179070463913 -3.66175073375
H 0.243804930129 -1.215805243437 -3.391074297591
H 0.531799831519 0.312630936841 -3.968374175982
H -0.579408506882 -0.349914461944 -1.30646676339
H -0.267005622392 1.308571417092 -1.932820247294
H 1.107368314756 0.183607790712 -1.63917139201
K 6.490511e-06 2.8420219e-05 2.20252745487
