9
Coordinates from XML
N 0.382674350852 -0.116847015565 -3.050691405234
C -0.438142154083 0.13377124563 -4.251038210278
H 0.984798509095 -0.941467824829 -3.173917859327
H -0.204823079635 -0.283569772922 -2.223086244937
H 0.993364541979 0.683645177088 -2.840479987931
H -1.06035315082 -0.747083489365 -4.419961096167
H 0.239764002605 0.302338692672 -5.089959701553
H -1.05107820855 1.016309566116 -4.058141642119
K -4.6571681e-05 1.4218623e-05 2.969627432963
