9
Coordinates from XML
N -0.320623155609 -0.58597170915 -2.8421645282
C 0.367102103735 0.67090387085 -2.489064763175
H -0.52720392754 -1.147843564542 -2.005885781139
H 0.254072651719 -1.164212524652 -3.469254871234
H -1.212698894537 -0.403433318994 -3.32049465702
H 1.301157355448 0.410941875977 -1.98752007128
H -0.290359035768 1.236457819821 -1.826000218167
H 0.557351831772 1.218691401766 -3.414001216103
K 3.9020752e-05 7.1312648e-05 2.20246900645
