9
Coordinates from XML
N -0.518226594302 -0.242445851237 -3.030784311863
C 0.59334503558 0.277577037382 -3.850153829817
H -0.531079711451 -1.270818183013 -3.026000525073
H -1.428369511496 0.076733528458 -3.388057881919
H -0.442165226008 0.070660481212 -2.054004811242
H 0.456036590678 -0.087709606283 -4.869613779457
H 1.526198560828 -0.094369267121 -3.422133670246
H 0.552505112449 1.367927723001 -3.814925105059
K 6.3068828e-05 2.9504303e-05 2.807173304984
