9
Coordinates from XML
N 0.33116649166 0.642704475057 -2.32846080604
C -0.355763960566 -0.69035426113 -2.620124227861
H 0.731213272129 1.043187161712 -3.180476127305
H 1.08838796046 0.524715007245 -1.650998290479
H -0.33181097646 1.320371988192 -1.94396599679
H 0.382042459276 -1.375579720199 -3.024534927133
H -1.148457843265 -0.518108693336 -3.340253178279
H -0.763628718733 -1.076839391377 -1.691925422662
K -0.008356414437 -0.016237929229 2.027407627932
