9
Coordinates from XML
N 0.33116649166 0.642704475057 -2.723509318488
C -0.355763960566 -0.69035426113 -3.015172740309
H 0.731213272129 1.043187161712 -3.575524639753
H 1.08838796046 0.524715007245 -2.046046802927
H -0.33181097646 1.320371988192 -2.339014509239
H 0.382042459276 -1.375579720199 -3.419583439581
H -1.148457843265 -0.518108693336 -3.735301690727
H -0.763628718733 -1.076839391377 -2.08697393511
K -0.008356414437 -0.016237929229 2.352359115483
