9
Coordinates from XML
N 0.33116649166 0.642704475057 -2.932007144503
C -0.355763960566 -0.69035426113 -3.223670566324
H 0.731213272129 1.043187161712 -3.784022465767
H 1.08838796046 0.524715007245 -2.254544628941
H -0.33181097646 1.320371988192 -2.547512335253
H 0.382042459276 -1.375579720199 -3.628081265595
H -1.148457843265 -0.518108693336 -3.943799516741
H -0.763628718733 -1.076839391377 -2.295471761125
K -0.008356414437 -0.016237929229 2.523861289469
