9
Coordinates from XML
N -0.283971127639 0.073456382773 -2.10068673058
C 0.304978768976 -0.07889362385 -3.502083921495
H -0.839329037105 0.929354410462 -2.027405934082
H 0.455090579025 0.116901501643 -1.394881061357
H -0.89214563757 -0.716390489808 -1.870742556314
H 0.940562051075 0.77746472333 -3.702395002897
H -0.511321374833 -0.120549621042 -4.215201503411
H 0.883617734524 -0.996206703 -3.533565681319
K 0.007185244557 -0.001857927436 2.266629701068
