9
Coordinates from XML
N -0.283971127639 0.073456382773 -2.309184556594
C 0.304978768976 -0.07889362385 -3.71058174751
H -0.839329037105 0.929354410462 -2.235903760096
H 0.455090579025 0.116901501643 -1.603378887371
H -0.89214563757 -0.716390489808 -2.079240382328
H 0.940562051075 0.77746472333 -3.910892828912
H -0.511321374833 -0.120549621042 -4.423699329425
H 0.883617734524 -0.996206703 -3.742063507333
K 0.007185244557 -0.001857927436 2.438131875054
