9
Coordinates from XML
N -0.283971127639 0.073456382773 -2.375025975336
C 0.304978768976 -0.07889362385 -3.776423166251
H -0.839329037105 0.929354410462 -2.301745178838
H 0.455090579025 0.116901501643 -1.669220306112
H -0.89214563757 -0.716390489808 -2.14508180107
H 0.940562051075 0.77746472333 -3.976734247653
H -0.511321374833 -0.120549621042 -4.489540748167
H 0.883617734524 -0.996206703 -3.807904926075
K 0.007185244557 -0.001857927436 2.492290456312
