9
Coordinates from XML
N -0.283971127639 0.073456382773 -2.440867394077
C 0.304978768976 -0.07889362385 -3.842264584992
H -0.839329037105 0.929354410462 -2.367586597579
H 0.455090579025 0.116901501643 -1.735061724854
H -0.89214563757 -0.716390489808 -2.210923219811
H 0.940562051075 0.77746472333 -4.042575666395
H -0.511321374833 -0.120549621042 -4.555382166908
H 0.883617734524 -0.996206703 -3.873746344816
K 0.007185244557 -0.001857927436 2.546449037571
