9
Coordinates from XML
N -0.283971127639 0.073456382773 -2.989545883589
C 0.304978768976 -0.07889362385 -4.390943074504
H -0.839329037105 0.929354410462 -2.916265087091
H 0.455090579025 0.116901501643 -2.283740214366
H -0.89214563757 -0.716390489808 -2.759601709323
H 0.940562051075 0.77746472333 -4.591254155906
H -0.511321374833 -0.120549621042 -5.10406065642
H 0.883617734524 -0.996206703 -4.422424834328
K 0.007185244557 -0.001857927436 2.997770548059
