9
Coordinates from XML
N -0.283971127639 0.073456382773 -3.132202290862
C 0.304978768976 -0.07889362385 -4.533599481777
H -0.839329037105 0.929354410462 -3.058921494364
H 0.455090579025 0.116901501643 -2.426396621639
H -0.89214563757 -0.716390489808 -2.902258116596
H 0.940562051075 0.77746472333 -4.733910563179
H -0.511321374833 -0.120549621042 -5.246717063693
H 0.883617734524 -0.996206703 -4.565081241601
K 0.007185244557 -0.001857927436 3.115114140786
