9
Coordinates from XML
N 0.049904694133 0.734544755397 -1.920873465833
C -0.053612839575 -0.789031911099 -1.965425160195
H 0.729053525808 1.076082446964 -2.605316879284
H 0.347152855791 1.055168220649 -0.996154345646
H -0.852259743224 1.16955614979 -2.129375395439
H 0.922166912027 -1.206253515416 -1.739106213003
H -0.370405335536 -1.082964261334 -2.960344312946
H -0.782071404576 -1.105515012165 -1.226193123114
K -0.001258916894 -0.018551640902 1.597151388068
