9
Coordinates from XML
N 0.049904694133 0.734544755397 -1.997688454364
C -0.053612839575 -0.789031911099 -2.042240148726
H 0.729053525808 1.076082446964 -2.682131867816
H 0.347152855791 1.055168220649 -1.072969334178
H -0.852259743224 1.16955614979 -2.20619038397
H 0.922166912027 -1.206253515416 -1.815921201534
H -0.370405335536 -1.082964261334 -3.037159301477
H -0.782071404576 -1.105515012165 -1.303008111646
K -0.001258916894 -0.018551640902 1.660336399536
