9
Coordinates from XML
N 0.049904694133 0.734544755397 -2.074503442896
C -0.053612839575 -0.789031911099 -2.119055137258
H 0.729053525808 1.076082446964 -2.758946856347
H 0.347152855791 1.055168220649 -1.14978432271
H -0.852259743224 1.16955614979 -2.283005372502
H 0.922166912027 -1.206253515416 -1.892736190066
H -0.370405335536 -1.082964261334 -3.113974290009
H -0.782071404576 -1.105515012165 -1.379823100177
K -0.001258916894 -0.018551640902 1.723521411004
