9
Coordinates from XML
N 0.049904694133 0.734544755397 -2.217159850169
C -0.053612839575 -0.789031911099 -2.261711544531
H 0.729053525808 1.076082446964 -2.90160326362
H 0.347152855791 1.055168220649 -1.292440729983
H -0.852259743224 1.16955614979 -2.425661779775
H 0.922166912027 -1.206253515416 -2.035392597339
H -0.370405335536 -1.082964261334 -3.256630697282
H -0.782071404576 -1.105515012165 -1.52247950745
K -0.001258916894 -0.018551640902 1.840865003731
