9
Coordinates from XML
N 0.049904694133 0.734544755397 -2.469551955344
C -0.053612839575 -0.789031911099 -2.514103649706
H 0.729053525808 1.076082446964 -3.153995368796
H 0.347152855791 1.055168220649 -1.544832835158
H -0.852259743224 1.16955614979 -2.67805388495
H 0.922166912027 -1.206253515416 -2.287784702514
H -0.370405335536 -1.082964261334 -3.509022802457
H -0.782071404576 -1.105515012165 -1.774871612626
K -0.001258916894 -0.018551640902 2.048472898556
