9
Coordinates from XML
N 0.049904694133 0.734544755397 -2.513446234505
C -0.053612839575 -0.789031911099 -2.557997928867
H 0.729053525808 1.076082446964 -3.197889647956
H 0.347152855791 1.055168220649 -1.588727114319
H -0.852259743224 1.16955614979 -2.721948164111
H 0.922166912027 -1.206253515416 -2.331678981675
H -0.370405335536 -1.082964261334 -3.552917081618
H -0.782071404576 -1.105515012165 -1.818765891787
K -0.001258916894 -0.018551640902 2.084578619395
