315
Coordinates from XML
N 0.224060115085 0.054813421284 -3.336638947847
C -0.256525307912 -0.062760865903 -1.946460672159
H 1.135769301347 -0.40535725778 -3.458158682114
H 0.335121406128 1.039348817327 -3.61274663258
H -0.432653720535 -0.379903857141 -3.998202947733
H 0.479651998532 0.414748962481 -1.297142670504
H -0.35337123974 -1.125282406056 -1.715311689469
H -1.222230412201 0.442389659341 -1.883134702799
K -2.7266607e-05 -6.67115e-06 2.211554278212
N 0.324125758835 -0.393133464734 -3.194639850228
C -0.371105405922 0.4501299276 -2.20320544559
H 0.999165933703 0.154229354442 -3.744596618073
H -0.339292319737 -0.819677175931 -3.854804167244
H 0.84212505025 -1.156522257455 -2.739850464643
H -0.898937746389 1.236837305848 -2.745488629329
H 0.382997807367 0.871446952314 -1.535686668031
H -1.069362026341 -0.185449846179 -1.655255061701
K -3.9446055e-05 4.7846305e-05 2.247637374028
N -0.666752128552 0.168966195685 -2.76399732149
C 0.763396664652 -0.193466892781 -2.790424309249
H -1.248165025685 -0.569003612257 -3.182443668844
H -0.843275851103 1.036320513881 -3.287844505393
H -0.998403981394 0.31582477894 -1.801522020492
H 1.052811035938 -0.33490043318 -3.833411560055
H 0.884519103576 -1.116779896423 -2.220702041741
H 1.323831902509 0.625235342035 -2.334998601944
K 8.1144143e-05 -2.056458e-05 2.283685342824
N -0.040086170886 -0.377100650466 -2.65225403598
C 0.045897900455 0.431750732466 -3.883411166408
H 0.36803836923 -1.311262040755 -2.788322388835
H -1.016567490921 -0.506174991939 -2.356105330098
H 0.462698819999 0.069968821708 -1.874272519496
H -0.503907278014 -0.093131117884 -4.666864955028
H 1.101235461272 0.53197853126 -4.14413713573
H -0.401213636051 1.405633076925 -3.675041223582
K 4.878693e-06 4.5892002e-05 2.6537006272
N -0.145768231169 0.522002404967 -2.846420165211
C 0.166908984774 -0.597670091086 -3.755237066578
H 0.698898833705 0.865864398111 -2.37098960331
H -0.816270533875 0.238778921089 -2.119721375996
H -0.558277414487 1.314419398841 -3.35615596099
H 0.599027178029 -1.402314700423 -3.157401428862
H 0.879069870978 -0.235213443458 -4.49902000585
H -0.765135676159 -0.915607354205 -4.226386964963
K 1.7741727e-05 -6.3528616e-05 2.689824638271
N -0.573263043242 0.072948767016 -3.138302977153
C 0.65636331071 -0.083511121643 -3.938878415764
H -0.727261736273 1.055434443482 -2.876112134287
H -0.527100110879 -0.475592816996 -2.269481289874
H -1.402284177668 -0.241910865685 -3.659365804814
H 1.495292643013 0.265764133002 -3.334071916216
H 0.545725014863 0.519411970332 -4.842207770239
H 0.762843100251 -1.141986796667 -4.183959789601
K 6.9767404e-05 -8.87633e-06 2.888412244171
N 0.045569519944 0.157267139888 -4.410156529712
C -0.052185296962 -0.180054657108 -2.976964392892
H -0.382468207596 1.070782531996 -4.610184208255
H -0.43201065229 -0.542566546475 -4.993277443864
H 1.025716841236 0.200479174153 -4.718965610955
H -1.110831471571 -0.210381521014 -2.712511961801
H 0.470845250549 0.595939649033 -2.414796363557
H 0.417165223788 -1.154758146174 -2.830551357013
K -5.547296e-06 -1.9138393e-05 3.078094018651
N -0.016380257351 -0.034879466574 -1.804141720834
C 0.018765826309 0.039927659926 -3.277420495074
H 0.909588058678 -0.26156117124 -1.418219678863
H -0.671862676162 -0.758710299957 -1.481199414414
H -0.313764046488 0.858657293931 -1.390530744691
H 0.339640485513 -0.933261335667 -3.65362411273
H 0.728294605565 0.821665844296 -3.555296964941
H -0.987822003749 0.282261317048 -3.623583634366
K 1.995045e-06 4.243814e-06 2.048916066143
N 0.654805638155 -0.200682178143 -2.566903840805
C -0.749718740833 0.229781401581 -2.427641227879
H 1.246614661672 0.56106219974 -2.923618464065
H 0.741545776819 -0.991264056117 -3.219082077611
H 1.046319122932 -0.499923741498 -1.664080060658
H -1.105348596578 0.533201418098 -3.414074311915
H -0.774679585978 1.066439549993 -1.726826624074
H -1.322696744605 -0.618078962609 -2.047374755484
K -7.9690274e-05 2.4424621e-05 2.058033988635
N -0.0309610563 -0.118498501027 -3.639812271431
C 0.035457777563 0.135664875513 -2.187789125426
H 0.263380675926 -1.077577986928 -3.86623493901
H 0.580164737561 0.523935263398 -4.161045551646
H -0.987064917109 0.004618558878 -3.998457913961
H 1.069569638073 -0.010379693712 -1.870188474052
H -0.630939106844 -0.57395064746 -1.693702076407
H -0.287262672087 1.163918260289 -2.013662539075
K 3.769218e-06 1.4419991e-05 2.437218542204
N -0.538890208505 -0.130261116015 -3.677418581212
C 0.617011174964 0.149144455819 -2.803801835652
H -0.237125765585 -0.432464651645 -4.613019449126
H -1.128603456502 0.703909006496 -3.796911266543
H -1.131687422316 -0.87506764365 -3.287837011205
H 1.20323069588 0.943536916878 -3.269498970183
H 1.199987170815 -0.769764245825 -2.717160065681
H 0.232546155501 0.463293803311 -1.831551653714
K 6.5584621e-05 1.5853165e-05 2.689925769227
N -0.195476803538 0.170041815329 -4.028119701111
C 0.223818442204 -0.194700273254 -2.661175515816
H -0.137602015179 -0.635203358479 -4.665276243048
H 0.39832622239 0.914885317511 -4.416045123913
H -1.166625518741 0.508452987334 -4.044464474636
H 1.256880735819 -0.543856483386 -2.710761485984
H -0.441157771732 -0.984964349834 -2.307550949128
H 0.140313900929 0.697128264527 -2.037122288289
K 2.37907e-05 -2.069574e-05 2.789244492627
N 0.435746238527 -0.266215436403 -4.148112088339
C -0.498908056467 0.304792259009 -3.159298020563
H 0.42402624514 -1.294346310313 -4.124717903841
H 1.40221691688 0.036391870647 -3.968548017315
H 0.193136989756 0.024375017307 -5.104468214802
H -0.189606464229 -0.038576512276 -2.170350629674
H -1.501593798787 -0.051682347031 -3.402830702963
H -0.440127766189 1.392367078939 -3.233456422164
K -5.3030747e-05 3.2397114e-05 3.032936654774
N -0.66445682573 0.140944700333 -3.752272748067
C 0.760774332606 -0.16136824335 -3.51838232631
H -0.845224433538 0.351773912043 -4.742531227181
H -0.970242877749 0.954261747488 -3.201918061345
H -1.263795064637 -0.652881930226 -3.490448272511
H 1.340851924125 0.714844797989 -3.813927964078
H 1.022400924966 -1.029004671848 -4.127085508585
H 0.886669397049 -0.375281737075 -2.455290124311
K 8.0865587e-05 -1.7152209e-05 2.996788099283
N -0.053346605267 -0.233527283344 -3.32243768836
C 0.061066037949 0.267375236671 -1.939184959277
H -1.022696311021 -0.179070463913 -3.66175073375
H 0.243804930129 -1.215805243437 -3.391074297591
H 0.531799831519 0.312630936841 -3.968374175982
H -0.579408506882 -0.349914461944 -1.30646676339
H -0.267005622392 1.308571417092 -1.932820247294
H 1.107368314756 0.183607790712 -1.63917139201
K 6.490511e-06 2.8420219e-05 2.20252745487
N -0.156006802737 0.448038980104 -3.461043134204
C 0.178625654002 -0.512991434133 -2.392481782757
H -0.204960044757 -0.013867199214 -4.378639996451
H 0.548289126006 1.194641058873 -3.527620838686
H -1.066300076389 0.895634171126 -3.290914356753
H 1.149837511205 -0.951254073919 -2.629673513212
H -0.602076738793 -1.275801789374 -2.372856650355
H 0.215224265734 0.035646548575 -1.449385559909
K 1.8986944e-05 -5.4528e-05 2.437196784336
N 0.076469193038 0.183517887449 -3.687289579803
C -0.087545115096 -0.210109174614 -2.274654190632
H 0.945957677604 0.713956124826 -3.829987833247
H -0.702665922554 0.775427211226 -4.004262503059
H 0.110967901751 -0.63897721777 -4.303918107352
H -0.116955516643 0.701687840174 -1.675197968623
H 0.765964659452 -0.833001294938 -2.00026854744
H -1.023014113968 -0.766357106746 -2.189451079491
K -9.305222e-06 -2.2332955e-05 2.491374888857
N -0.275618086243 -0.004063743164 -2.595929738427
C 0.31555864744 0.004646044607 -3.947897160058
H -0.969377813732 -0.756574224899 -2.495117262054
H -0.750552106576 0.884442819118 -2.388869903807
H 0.442727350118 -0.146595717691 -1.87372230957
H -0.492956497525 0.158921736264 -4.664897021513
H 0.801794299012 -0.959894243239 -4.106004510492
H 1.039299488909 0.820823959816 -3.990633387247
K 3.3541539e-05 4.93631e-07 2.653693772831
N 0.442455487276 -0.018486308996 -2.864381686444
C -0.506579820729 0.0211665231 -3.993603248878
H 1.358634199932 0.365135213464 -3.131194043698
H 0.593923750145 -0.981279372227 -2.535798526896
H 0.097786031163 0.530417239843 -2.065740991204
H -0.085895765315 -0.576393884023 -4.804487343777
H -0.624204396589 1.063932404344 -4.294543086834
H -1.454034451803 -0.397069496672 -3.648375883477
K -5.3845889e-05 2.249886e-06 2.789102863897
N 0.382674350852 -0.116847015565 -3.050691405234
C -0.438142154083 0.13377124563 -4.251038210278
H 0.984798509095 -0.941467824829 -3.173917859327
H -0.204823079635 -0.283569772922 -2.223086244937
H 0.993364541979 0.683645177088 -2.840479987931
H -1.06035315082 -0.747083489365 -4.419961096167
H 0.239764002605 0.302338692672 -5.089959701553
H -1.05107820855 1.016309566116 -4.058141642119
K -4.6571681e-05 1.4218623e-05 2.969627432963
N 0.433130369183 0.224585562306 -3.147257719666
C -0.495903488014 -0.25713882449 -4.187555469038
H 1.22440450972 0.73629738286 -3.55929411032
H 0.820337382827 -0.555608727915 -2.600222430045
H -0.037595317985 0.860033419221 -2.489578125501
H 0.060578995897 -0.92291743415 -4.849864021014
H -0.870311063052 0.613163774804 -4.72991454144
H -1.308803820545 -0.788674256402 -3.689121206579
K -5.2711078e-05 -2.7332199e-05 2.987689373863
N -0.390504426096 -0.55083366421 -2.37026125679
C 0.447116809288 0.630670417246 -2.652786426529
H 0.127204772609 -1.424615410577 -2.532188355484
H -1.225663607232 -0.5702498398 -2.970271393612
H -0.71132532584 -0.557739731886 -1.393048200943
H 0.753902857264 0.579998531386 -3.699161698958
H 1.312096436847 0.593559762261 -1.98780969521
H -0.155990514867 1.520646252738 -2.46310736129
K 4.7525935e-05 6.7036021e-05 2.058010057164
N 0.504100753858 -0.303954506972 -2.42028823692
C -0.57717829648 0.34801466852 -3.183933121345
H 0.154947842716 -0.694602280284 -1.535288631356
H 1.254175829816 0.361180546178 -2.190369226187
H 0.927075663354 -1.075135860577 -2.953477364518
H -0.982808935092 1.152670368581 -2.567832870266
H -1.337835912862 -0.405820918429 -3.395812588237
H -0.144971948829 0.739777345952 -4.106697044362
K -6.1350619e-05 3.6991795e-05 2.283643516019
N 0.021045649672 0.249764053763 -3.680330573556
C -0.024098970697 -0.285980175861 -2.306168361997
H -0.493505629994 -0.35388349056 -4.334994122889
H 0.988279313678 0.323338840969 -4.022274720896
H -0.397168357648 1.188105378012 -3.730646607666
H 0.431938597207 -1.277668215554 -2.319248827916
H -1.071413105633 -0.339436322007 -2.00279309405
H 0.536494906344 0.395526755771 -1.663473732206
K -2.561654e-06 -3.039827e-05 2.500399135456
N -0.161598029119 0.430105233736 -2.703244990732
C 0.185027475803 -0.4924583609 -3.801474872492
H 0.425632828539 0.264547376905 -1.875302809263
H -1.142330979431 0.317366657911 -2.4145706003
H -0.03227747964 1.411340042594 -2.983197746333
H 0.027586709944 -1.511654942177 -3.443651921916
H 1.232144694506 -0.324699822006 -4.06063430783
H -0.46930697665 -0.267291008008 -4.645820576291
K 1.9667422e-05 -5.2345471e-05 2.644681740396
N 0.626831411598 -0.276670450707 -3.043912628087
C -0.717686245854 0.316785782876 -3.176062798809
H 1.353527026886 0.449300489921 -2.992751939222
H 0.849786932767 -0.881754051907 -3.845189534742
H 0.701507340098 -0.849818056437 -2.193122155792
H -0.732503095986 0.909373282209 -4.092690884014
H -0.893407652195 0.94413562983 -2.300097521597
H -1.440009284747 -0.500297014489 -3.225039423188
K -7.6285317e-05 3.3672682e-05 2.554472250987
N -0.408403173441 0.501008033826 -3.155339001601
C 0.467599251984 -0.57362627241 -3.660475179787
H -1.085309496386 0.799606564479 -3.86974399
H 0.135504050288 1.329103429063 -2.879109100318
H -0.942759447575 0.193069750492 -2.332200807887
H 1.004270901358 -0.186563742117 -4.52866448426
H -0.165725068829 -1.41926912808 -3.935337827887
H 1.158970050578 -0.84470095176 -2.860288628371
K 4.9702746e-05 -6.0972711e-05 2.789138273167
N -0.379948790752 -0.278843092199 -3.28473778354
C 0.435017641594 0.319274071892 -4.359664419255
H -1.202050401815 0.30097194104 -3.070959374159
H 0.161538198421 -0.380200405654 -2.416176590782
H -0.72016726338 -1.21308985951 -3.548088250889
H 0.76406120937 1.303447204242 -4.020960852597
H -0.192675319127 0.399805481346 -5.249202079589
H 1.286966954819 -0.339444497818 -4.538677808743
K 4.6239442e-05 3.3937194e-05 3.11405743298
N 0.201265877411 -0.633712840451 -2.645574415279
C -0.230429669819 0.725571335782 -2.266935824078
H 0.755069660332 -1.072779207433 -1.898406538957
H 0.782491326292 -0.619590142707 -3.494018601411
H -0.604908740819 -1.244380234122 -2.83288944198
H 0.665533492127 1.321209555901 -2.082404923768
H -0.839854278025 0.643314748781 -1.364939975524
H -0.810156531344 1.135018169775 -3.096419781824
K -2.4492891e-05 7.7123648e-05 2.030968281281
N -0.10347210808 -0.155631285428 -3.504221099414
C 0.118457293101 0.178188882064 -2.084117886028
H -1.080510367424 0.009394147598 -3.779721709636
H 0.109004344391 -1.143821282744 -3.694521641583
H 0.492119035949 0.413160042495 -4.12039211012
H -0.538648188621 -0.455432178411 -1.485516793803
H -0.1230283872 1.23402751354 -1.947551197219
H 1.167803803649 -0.017329396595 -1.855167927499
K 1.2590836e-05 1.8940301e-05 2.337925998895
N -0.320623155609 -0.58597170915 -2.8421645282
C 0.367102103735 0.67090387085 -2.489064763175
H -0.52720392754 -1.147843564542 -2.005885781139
H 0.254072651719 -1.164212524652 -3.469254871234
H -1.212698894537 -0.403433318994 -3.32049465702
H 1.301157355448 0.410941875977 -1.98752007128
H -0.290359035768 1.236457819821 -1.826000218167
H 0.557351831772 1.218691401766 -3.414001216103
K 3.9020752e-05 7.1312648e-05 2.20246900645
N -0.139057335832 0.673317901985 -2.939079053388
C 0.159219060221 -0.770915063662 -2.99010877509
H -0.201652025947 1.07663650248 -3.883088455494
H 0.590920658072 1.188975027665 -2.430050697448
H -1.033688934021 0.854686548293 -2.465097178568
H 1.115230103495 -0.896560370786 -3.501814424791
H -0.647560543672 -1.259334777666 -3.539939534245
H 0.212413693058 -1.137396083176 -1.96315426131
K 1.6924138e-05 -8.194333e-05 2.437133260277
N -0.518226594302 -0.242445851237 -3.030784311863
C 0.59334503558 0.277577037382 -3.850153829817
H -0.531079711451 -1.270818183013 -3.026000525073
H -1.428369511496 0.076733528458 -3.388057881919
H -0.442165226008 0.070660481212 -2.054004811242
H 0.456036590678 -0.087709606283 -4.869613779457
H 1.526198560828 -0.094369267121 -3.422133670246
H 0.552505112449 1.367927723001 -3.814925105059
K 6.3068828e-05 2.9504303e-05 2.807173304984
N 0.280738915116 0.218315971045 -2.955579815839
C -0.32142013596 -0.24996303135 -4.218711223541
H 1.241318597162 0.555838743307 -3.100847818666
H 0.319973516389 -0.535575297275 -2.257017999238
H -0.26039605893 0.991427139217 -2.546445166228
H 0.295338034407 -1.065761481923 -4.600377016255
H -0.334341204321 0.591136063243 -4.914517496197
H -1.334162369853 -0.593129536021 -3.998794198824
K -3.4164526e-05 -2.656954e-05 2.915465289286
N -0.289981355877 0.532272358478 -4.1331848385
C 0.33202021358 -0.609430342385 -3.435323326138
H -0.37379281085 0.353960916702 -5.142599723345
H 0.264441413682 1.3905606503 -4.015555714913
H -1.234492447398 0.722210578984 -3.77298854426
H 1.326199995793 -0.759242324195 -3.860469725328
H -0.300206390202 -1.484533552803 -3.597326111879
H 0.392280542749 -0.359647752799 -2.374309221299
K 3.5291817e-05 -6.4778708e-05 3.132210877376
