6
Coordinates from XML
H -0.650655765141 0.790277699683 -3.744704858466
N 3.550547e-06 -4.312446e-06 -3.718766542903
H -0.518977583445 -0.873664178315 -3.844702523979
H 0.688133121902 0.099641292843 -4.470495640633
H 0.481450887922 -0.016194888017 -2.815165681573
K 1.61e-10 -1.96e-10 1.721233315562
