48
Coordinates from XML
Na 0.0 -0.0 -2.332954814888
K 0.0 0.0 1.376514140366
Na 0.0 -0.0 -2.488773689352
K 0.0 0.0 1.468452005029
Na 0.0 0.0 -2.588324636926
K 0.0 0.0 1.52719008523
Na 0.0 -0.0 -2.631607657611
K 0.0 0.0 1.55272838097
Na 0.0 0.0 -2.618622751405
K 0.0 -0.0 1.545066892248
Na 0.0 0.0 -2.54936991831
K 0.0 0.0 1.504205619065
Na 0.0 -0.0 -2.423849158326
K 0.0 0.0 1.43014456142
Na 0.0 0.0 -2.242060471451
K 0.0 -0.0 1.322883719313
Na 0.0 0.0 -2.004003857687
K 0.0 0.0 1.182423092745
Na 0.0 0.0 -1.709679317033
K 0.0 -0.0 1.008762681716
Na 0.0 0.0 -1.35908684949
K 0.0 -0.0 0.801902486225
Na 0.0 -0.0 1.926094420455
K 0.0 -0.0 -1.136454160414
Na 0.0 -0.0 2.670562376227
K 0.0 -0.0 -1.575712847136
Na 0.0 -0.0 3.471298258888
K 0.0 -0.0 -2.048171318319
Na 0.0 0.0 -3.069123810978
K 0.0 0.0 1.810876189022
Na 0.0 0.0 -3.094280563527
K 0.0 0.0 1.825719436473
Na 0.0 0.0 -3.13201569235
K 0.0 0.0 1.84798430765
Na 0.0 0.0 -3.169750821174
K 0.0 0.0 1.870249178826
Na 0.0 0.0 -3.194907573723
K 0.0 0.0 1.885092426277
Na 0.0 0.0 -3.232642702546
K 0.0 0.0 1.907357297454
Na 0.0 0.0 -3.257799455095
K 0.0 0.0 1.922200544905
Na 0.0 0.0 -3.295534583919
K 0.0 0.0 1.944465416081
Na 0.0 0.0 -3.320691336468
K 0.0 0.0 1.959308663532
Na 0.0 0.0 -3.358426465291
K 0.0 0.0 1.981573534709
